** Generated for: hspiceD
** Generated on: Jan  5 03:09:29 2020
** Design library name: civicR
** Design cell name: DLDO_TOP
** Design view name: schematic


.TEMP 25.0
.OPTION
+    ARTIST=2
+    INGOLD=2
+    PARHIER=LOCAL
+    PSF=2
.LIB "/home/lab.apps/vlsiapps/kits/tsmc/N65LP/models/hspice/toplevel.l" tt_lib

** Library name: tcbn65lp
** Cell name: DFQD1
** View name: schematic
.subckt DFQD1 d cp q vdd vss
m0 net7 net13 vss vss nch l=60e-9 w=390e-9 m=1 nf=1 
mi4 net24 net63 vss vss nch l=60e-9 w=370e-9 m=1 nf=1 
mi56 net37 net7 vss vss nch l=60e-9 w=150e-9 m=1 nf=1 
m1 net11 net67 vss vss nch l=60e-9 w=390e-9 m=1 nf=1 
mi50 net11 net25 net13 vss nch l=60e-9 w=190e-9 m=1 nf=1 
m2 net25 net63 vss vss nch l=60e-9 w=195e-9 m=1 nf=1 
mi5 net67 d net24 vss nch l=60e-9 w=370e-9 m=1 nf=1 
m3 net63 cp vss vss nch l=60e-9 w=195e-9 m=1 nf=1 
mi49 net13 net63 net37 vss nch l=60e-9 w=150e-9 m=1 nf=1 
mi48 net9 net11 vss vss nch l=60e-9 w=150e-9 m=1 nf=1 
m4 q net7 vss vss nch l=60e-9 w=390e-9 m=1 nf=1 
mi47 net67 net25 net9 vss nch l=60e-9 w=150e-9 m=1 nf=1 
m5 net7 net13 vdd vdd pch l=60e-9 w=520e-9 m=1 nf=1 
m6 net25 net63 vdd vdd pch l=60e-9 w=260e-9 m=1 nf=1 
mi43 net56 net11 vdd vdd pch l=60e-9 w=150e-9 m=1 nf=1 
mi6 net67 d net49 vdd pch l=60e-9 w=460e-9 m=1 nf=1 
m7 net63 cp vdd vdd pch l=60e-9 w=260e-9 m=1 nf=1 
m8 q net7 vdd vdd pch l=60e-9 w=520e-9 m=1 nf=1 
mi57 net13 net25 net72 vdd pch l=60e-9 w=150e-9 m=1 nf=1 
m9 net11 net67 vdd vdd pch l=60e-9 w=520e-9 m=1 nf=1 
mi52 net11 net63 net13 vdd pch l=60e-9 w=260e-9 m=1 nf=1 
mi51 net72 net7 vdd vdd pch l=60e-9 w=150e-9 m=1 nf=1 
mi45 net67 net63 net56 vdd pch l=60e-9 w=150e-9 m=1 nf=1 
mi7 net49 net25 vdd vdd pch l=60e-9 w=460e-9 m=1 nf=1 
.ends DFQD1
** End of subcircuit definition.

** Library name: tcbn65lp
** Cell name: INVD1
** View name: schematic
.subckt INVD1 i zn vdd vss
m0 zn i vss vss nch l=60e-9 w=390e-9 m=1 nf=1 
m1 zn i vdd vdd pch l=60e-9 w=520e-9 m=1 nf=1 
.ends INVD1
** End of subcircuit definition.

** Library name: civic
** Cell name: ULDO4HVT
** View name: schematic
.subckt ULDO4HVT a d en rs vdd vo vss z
m16 vss vo vss vss nch_hvt l=130e-9 w=795e-9 m=1 nf=1 
m18 z rs net027 vss nch_hvt l=60e-9 w=390e-9 m=1 nf=1 
m0 net027 net020 vss vss nch_hvt l=60e-9 w=390e-9 m=1 nf=1 
m14 net021 en vss vss nch_hvt l=60e-9 w=230e-9 m=1 nf=1 
m13 net21 d net021 vss nch_hvt l=60e-9 w=230e-9 m=1 nf=1 
m20 net020 a vss vss nch_hvt l=60e-9 w=390e-9 m=1 nf=1 
m10 vo net21 vdd vdd pch_hvt l=60e-9 w=1.88e-6 m=1 nf=1 
m1 z rs vo vdd pch_hvt l=60e-9 w=520e-9 m=1 nf=1 
m15 net21 en vdd vdd pch_hvt l=60e-9 w=230e-9 m=1 nf=1 
m12 net21 d vdd vdd pch_hvt l=60e-9 w=230e-9 m=1 nf=1 
m19 net020 a vo vdd pch_hvt l=60e-9 w=520e-9 m=1 nf=1 
m17 z net020 vo vdd pch_hvt l=60e-9 w=520e-9 m=1 nf=1 
.ends ULDO4HVT
** End of subcircuit definition.

** Library name: tcbn65lphvt
** Cell name: DCAP16HVT
** View name: schematic
.subckt DCAP16HVT vdd vss
mi4 vss net11 vss vss nch_hvt l=690e-9 w=300e-9 m=1 nf=1 
mi8 vss net11 vss vss nch_hvt l=690e-9 w=300e-9 m=1 nf=1 
m_u2 net5 net11 vss vss nch_hvt l=60e-9 w=300e-9 m=1 nf=1 
mi7 vss net11 vss vss nch_hvt l=690e-9 w=300e-9 m=1 nf=1 
mi3 vdd net5 vdd vdd pch_hvt l=690e-9 w=430e-9 m=1 nf=1 
mi6 vdd net5 vdd vdd pch_hvt l=690e-9 w=430e-9 m=1 nf=1 
m_u1 net11 net5 vdd vdd pch_hvt l=60e-9 w=390e-9 m=1 nf=1 
mi5 vdd net5 vdd vdd pch_hvt l=690e-9 w=430e-9 m=1 nf=1 
.ends DCAP16HVT
** End of subcircuit definition.

** Library name: civic
** Cell name: ULDO_BANK
** View name: schematic
.subckt ULDO_BANK code<5> code<4> code<3> code<2> code<1> code<0> en ro<0> ro<64> ro<63> ro<62> ro<61> ro<60> ro<59> ro<58> ro<57> ro<56> ro<55> ro<54> ro<53> ro<52> ro<51> ro<50> ro<49> ro<48> ro<47> ro<46> ro<45> ro<44> ro<43> ro<42> ro<41> ro<40> ro<39> ro<38> ro<37> ro<36> ro<35> ro<34> ro<33> ro<32> ro<31> ro<30> ro<29> ro<28> ro<27> ro<26> ro<25> ro<24> ro<23> ro<22> ro<21> ro<20> ro<19> ro<18> ro<17> ro<16> ro<15> ro<14> ro<13> ro<12> ro<11> ro<10> ro<9> ro<8> ro<7> ro<6> ro<5> ro<4> ro<3> ro<2> ro<1> rs_rising vdd vout vss
xpwb14<3> ro<44> code<4> en rs_rising vdd vout vss ro<45> ULDO4HVT
xpwb14<2> ro<45> code<4> en rs_rising vdd vout vss ro<46> ULDO4HVT
xpwb14<1> ro<46> code<3> en rs_rising vdd vout vss ro<47> ULDO4HVT
xpwb14<0> ro<47> code<3> en rs_rising vdd vout vss ro<48> ULDO4HVT
xpwb7<3> ro<28> code<4> en rs_rising vdd vout vss ro<29> ULDO4HVT
xpwb7<2> ro<29> code<4> en rs_rising vdd vout vss ro<30> ULDO4HVT
xpwb7<1> ro<30> code<2> en rs_rising vdd vout vss ro<31> ULDO4HVT
xpwb7<0> ro<31> code<2> en rs_rising vdd vout vss ro<32> ULDO4HVT
xpwb6<3> ro<12> code<5> en rs_rising vdd vout vss ro<13> ULDO4HVT
xpwb6<2> ro<13> code<5> en rs_rising vdd vout vss ro<14> ULDO4HVT
xpwb6<1> ro<14> code<5> en rs_rising vdd vout vss ro<15> ULDO4HVT
xpwb6<0> ro<15> code<5> en rs_rising vdd vout vss ro<16> ULDO4HVT
xpwb15<3> ro<60> code<4> en rs_rising vdd vout vss ro<61> ULDO4HVT
xpwb15<2> ro<61> code<4> en rs_rising vdd vout vss ro<62> ULDO4HVT
xpwb15<1> ro<62> code<3> en rs_rising vdd vout vss ro<63> ULDO4HVT
xpwb15<0> ro<63> code<3> en rs_rising vdd vout vss ro<64> ULDO4HVT
xpwb13<3> ro<56> code<4> en rs_rising vdd vout vss ro<57> ULDO4HVT
xpwb13<2> ro<57> code<4> en rs_rising vdd vout vss ro<58> ULDO4HVT
xpwb13<1> ro<58> code<3> en rs_rising vdd vout vss ro<59> ULDO4HVT
xpwb13<0> ro<59> code<3> en rs_rising vdd vout vss ro<60> ULDO4HVT
xpwb12<3> ro<40> code<5> en rs_rising vdd vout vss ro<41> ULDO4HVT
xpwb12<2> ro<41> code<5> en rs_rising vdd vout vss ro<42> ULDO4HVT
xpwb12<1> ro<42> code<5> en rs_rising vdd vout vss ro<43> ULDO4HVT
xpwb12<0> ro<43> code<1> en rs_rising vdd vout vss ro<44> ULDO4HVT
xpwb5<3> ro<24> code<5> en rs_rising vdd vout vss ro<25> ULDO4HVT
xpwb5<2> ro<25> code<5> en rs_rising vdd vout vss ro<26> ULDO4HVT
xpwb5<1> ro<26> code<5> en rs_rising vdd vout vss ro<27> ULDO4HVT
xpwb5<0> ro<27> code<0> en rs_rising vdd vout vss ro<28> ULDO4HVT
xpwb4<3> ro<8> code<5> en rs_rising vdd vout vss ro<9> ULDO4HVT
xpwb4<2> ro<9> code<5> en rs_rising vdd vout vss ro<10> ULDO4HVT
xpwb4<1> ro<10> code<5> en rs_rising vdd vout vss ro<11> ULDO4HVT
xpwb4<0> ro<11> code<5> en rs_rising vdd vout vss ro<12> ULDO4HVT
xpwb11<3> ro<52> code<5> en rs_rising vdd vout vss ro<53> ULDO4HVT
xpwb11<2> ro<53> code<5> en rs_rising vdd vout vss ro<54> ULDO4HVT
xpwb11<1> ro<54> code<3> en rs_rising vdd vout vss ro<55> ULDO4HVT
xpwb11<0> ro<55> code<3> en rs_rising vdd vout vss ro<56> ULDO4HVT
xpwb10<3> ro<36> code<5> en rs_rising vdd vout vss ro<37> ULDO4HVT
xpwb10<2> ro<37> code<5> en rs_rising vdd vout vss ro<38> ULDO4HVT
xpwb10<1> ro<38> code<5> en rs_rising vdd vout vss ro<39> ULDO4HVT
xpwb10<0> ro<39> code<1> en rs_rising vdd vout vss ro<40> ULDO4HVT
xpwb3<3> ro<20> code<5> en rs_rising vdd vout vss ro<21> ULDO4HVT
xpwb3<2> ro<21> code<5> en rs_rising vdd vout vss ro<22> ULDO4HVT
xpwb3<1> ro<22> code<2> en rs_rising vdd vout vss ro<23> ULDO4HVT
xpwb3<0> ro<23> code<2> en rs_rising vdd vout vss ro<24> ULDO4HVT
xpwb2<3> ro<4> code<5> en rs_rising vdd vout vss ro<5> ULDO4HVT
xpwb2<2> ro<5> code<5> en rs_rising vdd vout vss ro<6> ULDO4HVT
xpwb2<1> ro<6> code<5> en rs_rising vdd vout vss ro<7> ULDO4HVT
xpwb2<0> ro<7> code<5> en rs_rising vdd vout vss ro<8> ULDO4HVT
xpwb9<3> ro<48> code<4> en rs_rising vdd vout vss ro<49> ULDO4HVT
xpwb9<2> ro<49> code<4> en rs_rising vdd vout vss ro<50> ULDO4HVT
xpwb9<1> ro<50> code<4> en rs_rising vdd vout vss ro<51> ULDO4HVT
xpwb9<0> ro<51> code<4> en rs_rising vdd vout vss ro<52> ULDO4HVT
xpbw8<3> ro<32> code<5> en rs_rising vdd vout vss ro<33> ULDO4HVT
xpbw8<2> ro<33> code<5> en rs_rising vdd vout vss ro<34> ULDO4HVT
xpbw8<1> ro<34> code<5> en rs_rising vdd vout vss ro<35> ULDO4HVT
xpbw8<0> ro<35> code<5> en rs_rising vdd vout vss ro<36> ULDO4HVT
xpwb1<3> ro<16> code<4> en rs_rising vdd vout vss ro<17> ULDO4HVT
xpwb1<2> ro<17> code<4> en rs_rising vdd vout vss ro<18> ULDO4HVT
xpwb1<1> ro<18> code<4> en rs_rising vdd vout vss ro<19> ULDO4HVT
xpwb1<0> ro<19> code<4> en rs_rising vdd vout vss ro<20> ULDO4HVT
xpwb0<3> ro<0> code<5> en rs_rising vdd vout vss ro<1> ULDO4HVT
xpwb0<2> ro<1> code<5> en rs_rising vdd vout vss ro<2> ULDO4HVT
xpwb0<1> ro<2> code<5> en rs_rising vdd vout vss ro<3> ULDO4HVT
xpwb0<0> ro<3> en en rs_rising vdd vout vss ro<4> ULDO4HVT
xddcp<47> vdd vss DCAP16HVT
xddcp<46> vdd vss DCAP16HVT
xddcp<45> vdd vss DCAP16HVT
xddcp<44> vdd vss DCAP16HVT
xddcp<43> vdd vss DCAP16HVT
xddcp<42> vdd vss DCAP16HVT
xddcp<41> vdd vss DCAP16HVT
xddcp<40> vdd vss DCAP16HVT
xddcp<39> vdd vss DCAP16HVT
xddcp<38> vdd vss DCAP16HVT
xddcp<37> vdd vss DCAP16HVT
xddcp<36> vdd vss DCAP16HVT
xddcp<35> vdd vss DCAP16HVT
xddcp<34> vdd vss DCAP16HVT
xddcp<33> vdd vss DCAP16HVT
xddcp<32> vdd vss DCAP16HVT
xddcp<31> vdd vss DCAP16HVT
xddcp<30> vdd vss DCAP16HVT
xddcp<29> vdd vss DCAP16HVT
xddcp<28> vdd vss DCAP16HVT
xddcp<27> vdd vss DCAP16HVT
xddcp<26> vdd vss DCAP16HVT
xddcp<25> vdd vss DCAP16HVT
xddcp<24> vdd vss DCAP16HVT
xddcp<23> vdd vss DCAP16HVT
xddcp<22> vdd vss DCAP16HVT
xddcp<21> vdd vss DCAP16HVT
xddcp<20> vdd vss DCAP16HVT
xddcp<19> vdd vss DCAP16HVT
xddcp<18> vdd vss DCAP16HVT
xddcp<17> vdd vss DCAP16HVT
xddcp<16> vdd vss DCAP16HVT
xddcp<15> vdd vss DCAP16HVT
xddcp<14> vdd vss DCAP16HVT
xddcp<13> vdd vss DCAP16HVT
xddcp<12> vdd vss DCAP16HVT
xddcp<11> vdd vss DCAP16HVT
xddcp<10> vdd vss DCAP16HVT
xddcp<9> vdd vss DCAP16HVT
xddcp<8> vdd vss DCAP16HVT
xddcp<7> vdd vss DCAP16HVT
xddcp<6> vdd vss DCAP16HVT
xddcp<5> vdd vss DCAP16HVT
xddcp<4> vdd vss DCAP16HVT
xddcp<3> vdd vss DCAP16HVT
xddcp<2> vdd vss DCAP16HVT
xddcp<1> vdd vss DCAP16HVT
xddcp<0> vdd vss DCAP16HVT
.ends ULDO_BANK
** End of subcircuit definition.

** Library name: tcbn65lphvt
** Cell name: INVD0HVT
** View name: schematic
.subckt INVD0HVT i zn vdd vss
m0 zn i vss vss nch_hvt l=60e-9 w=195e-9 m=1 nf=1 
m1 zn i vdd vdd pch_hvt l=60e-9 w=260e-9 m=1 nf=1 
.ends INVD0HVT
** End of subcircuit definition.

** Library name: tcbn65lphvt
** Cell name: ND2D0HVT
** View name: schematic
.subckt ND2D0HVT a1 a2 zn vdd vss
m0 zn a1 net1 vss nch_hvt l=60e-9 w=195e-9 m=1 nf=1 
m1 net1 a2 vss vss nch_hvt l=60e-9 w=195e-9 m=1 nf=1 
m2 zn a1 vdd vdd pch_hvt l=60e-9 w=260e-9 m=1 nf=1 
m3 zn a2 vdd vdd pch_hvt l=60e-9 w=260e-9 m=1 nf=1 
.ends ND2D0HVT
** End of subcircuit definition.

** Library name: civic
** Cell name: Dlvlxft_16B
** View name: schematic
.subckt Dlvlxft_16B bus_in<15> bus_in<14> bus_in<13> bus_in<12> bus_in<11> bus_in<10> bus_in<9> bus_in<8> bus_in<7> bus_in<6> bus_in<5> bus_in<4> bus_in<3> bus_in<2> bus_in<1> bus_in<0> bus_out<15> bus_out<14> bus_out<13> bus_out<12> bus_out<11> bus_out<10> bus_out<9> bus_out<8> bus_out<7> bus_out<6> bus_out<5> bus_out<4> bus_out<3> bus_out<2> bus_out<1> bus_out<0> bus_outn<15> bus_outn<14> bus_outn<13> bus_outn<12> bus_outn<11> bus_outn<10> bus_outn<9> bus_outn<8> bus_outn<7> bus_outn<6> bus_outn<5> bus_outn<4> bus_outn<3> bus_outn<2> bus_outn<1> bus_outn<0> vdd vss
xi2<15> bus_in<15> n<15> vdd vss INVD0HVT
xi2<14> bus_in<14> n<14> vdd vss INVD0HVT
xi2<13> bus_in<13> n<13> vdd vss INVD0HVT
xi2<12> bus_in<12> n<12> vdd vss INVD0HVT
xi2<11> bus_in<11> n<11> vdd vss INVD0HVT
xi2<10> bus_in<10> n<10> vdd vss INVD0HVT
xi2<9> bus_in<9> n<9> vdd vss INVD0HVT
xi2<8> bus_in<8> n<8> vdd vss INVD0HVT
xi2<7> bus_in<7> n<7> vdd vss INVD0HVT
xi2<6> bus_in<6> n<6> vdd vss INVD0HVT
xi2<5> bus_in<5> n<5> vdd vss INVD0HVT
xi2<4> bus_in<4> n<4> vdd vss INVD0HVT
xi2<3> bus_in<3> n<3> vdd vss INVD0HVT
xi2<2> bus_in<2> n<2> vdd vss INVD0HVT
xi2<1> bus_in<1> n<1> vdd vss INVD0HVT
xi2<0> bus_in<0> n<0> vdd vss INVD0HVT
xi1<15> n<15> bus_outn<15> bus_out<15> vdd vss ND2D0HVT
xi1<14> n<14> bus_outn<14> bus_out<14> vdd vss ND2D0HVT
xi1<13> n<13> bus_outn<13> bus_out<13> vdd vss ND2D0HVT
xi1<12> n<12> bus_outn<12> bus_out<12> vdd vss ND2D0HVT
xi1<11> n<11> bus_outn<11> bus_out<11> vdd vss ND2D0HVT
xi1<10> n<10> bus_outn<10> bus_out<10> vdd vss ND2D0HVT
xi1<9> n<9> bus_outn<9> bus_out<9> vdd vss ND2D0HVT
xi1<8> n<8> bus_outn<8> bus_out<8> vdd vss ND2D0HVT
xi1<7> n<7> bus_outn<7> bus_out<7> vdd vss ND2D0HVT
xi1<6> n<6> bus_outn<6> bus_out<6> vdd vss ND2D0HVT
xi1<5> n<5> bus_outn<5> bus_out<5> vdd vss ND2D0HVT
xi1<4> n<4> bus_outn<4> bus_out<4> vdd vss ND2D0HVT
xi1<3> n<3> bus_outn<3> bus_out<3> vdd vss ND2D0HVT
xi1<2> n<2> bus_outn<2> bus_out<2> vdd vss ND2D0HVT
xi1<1> n<1> bus_outn<1> bus_out<1> vdd vss ND2D0HVT
xi1<0> n<0> bus_outn<0> bus_out<0> vdd vss ND2D0HVT
xi3<15> bus_in<15> bus_out<15> bus_outn<15> vdd vss ND2D0HVT
xi3<14> bus_in<14> bus_out<14> bus_outn<14> vdd vss ND2D0HVT
xi3<13> bus_in<13> bus_out<13> bus_outn<13> vdd vss ND2D0HVT
xi3<12> bus_in<12> bus_out<12> bus_outn<12> vdd vss ND2D0HVT
xi3<11> bus_in<11> bus_out<11> bus_outn<11> vdd vss ND2D0HVT
xi3<10> bus_in<10> bus_out<10> bus_outn<10> vdd vss ND2D0HVT
xi3<9> bus_in<9> bus_out<9> bus_outn<9> vdd vss ND2D0HVT
xi3<8> bus_in<8> bus_out<8> bus_outn<8> vdd vss ND2D0HVT
xi3<7> bus_in<7> bus_out<7> bus_outn<7> vdd vss ND2D0HVT
xi3<6> bus_in<6> bus_out<6> bus_outn<6> vdd vss ND2D0HVT
xi3<5> bus_in<5> bus_out<5> bus_outn<5> vdd vss ND2D0HVT
xi3<4> bus_in<4> bus_out<4> bus_outn<4> vdd vss ND2D0HVT
xi3<3> bus_in<3> bus_out<3> bus_outn<3> vdd vss ND2D0HVT
xi3<2> bus_in<2> bus_out<2> bus_outn<2> vdd vss ND2D0HVT
xi3<1> bus_in<1> bus_out<1> bus_outn<1> vdd vss ND2D0HVT
xi3<0> bus_in<0> bus_out<0> bus_outn<0> vdd vss ND2D0HVT
.ends Dlvlxft_16B
** End of subcircuit definition.

** Library name: tcbn65lphvt
** Cell name: CKND1HVT
** View name: schematic
.subckt CKND1HVT i zn vdd vss
m_u2 zn i vss vss nch_hvt l=60e-9 w=310e-9 m=1 nf=1 
m_u1 zn i vdd vdd pch_hvt l=60e-9 w=520e-9 m=1 nf=1 
.ends CKND1HVT
** End of subcircuit definition.

** Library name: tcbn65lphvt
** Cell name: MUX3D1HVT
** View name: schematic
.subckt MUX3D1HVT i0 i1 i2 s0 s1 z vdd vss
m0 net37 net13 net25 vss nch_hvt l=60e-9 w=230e-9 m=1 nf=1 
m1 net33 s0 net25 vss nch_hvt l=60e-9 w=240e-9 m=1 nf=1 
m2 net37 i0 vss vss nch_hvt l=60e-9 w=230e-9 m=1 nf=1 
m3 net25 net9 net79 vss nch_hvt l=60e-9 w=210e-9 m=1 nf=1 
m4 net5 i2 vss vss nch_hvt l=60e-9 w=390e-9 m=1 nf=1 
m5 net33 i1 vss vss nch_hvt l=60e-9 w=390e-9 m=1 nf=1 
m6 net13 s0 vss vss nch_hvt l=60e-9 w=195e-9 m=1 nf=1 
m7 net9 s1 vss vss nch_hvt l=60e-9 w=195e-9 m=1 nf=1 
m8 net5 s1 net79 vss nch_hvt l=60e-9 w=320e-9 m=1 nf=1 
m9 z net79 vss vss nch_hvt l=60e-9 w=390e-9 m=1 nf=1 
m10 z net79 vdd vdd pch_hvt l=60e-9 w=520e-9 m=1 nf=1 
m11 net25 s1 net79 vdd pch_hvt l=60e-9 w=260e-9 m=1 nf=1 
m12 net33 i1 vdd vdd pch_hvt l=60e-9 w=520e-9 m=1 nf=1 
m13 net9 s1 vdd vdd pch_hvt l=60e-9 w=260e-9 m=1 nf=1 
m14 net5 i2 vdd vdd pch_hvt l=60e-9 w=520e-9 m=1 nf=1 
m15 net33 net13 net25 vdd pch_hvt l=60e-9 w=350e-9 m=1 nf=1 
m16 net13 s0 vdd vdd pch_hvt l=60e-9 w=260e-9 m=1 nf=1 
m17 net5 net9 net79 vdd pch_hvt l=60e-9 w=440e-9 m=1 nf=1 
m18 net37 i0 vdd vdd pch_hvt l=60e-9 w=340e-9 m=1 nf=1 
m19 net37 s0 net25 vdd pch_hvt l=60e-9 w=410e-9 m=1 nf=1 
.ends MUX3D1HVT
** End of subcircuit definition.

** Library name: civic
** Cell name: PWR_BANK
** View name: schematic
.subckt PWR_BANK code<5> code<4> code<3> code<2> code<1> code<0> dout<0> dout<1> dout<2> dout<3> dout<4> dout<5> dout<6> dout<7> dout<8> dout<9> dout<10> dout<11> dout<12> dout<13> dout<14> dout<15> en mclk rs_rising sel<1> sel<0> sysclk vdd vout vss
xi30 code<5> code<4> code<3> code<2> code<1> code<0> en ro<0> ro<64> ro<63> ro<62> ro<61> ro<60> ro<59> ro<58> ro<57> ro<56> ro<55> ro<54> ro<53> ro<52> ro<51> ro<50> ro<49> ro<48> ro<47> ro<46> ro<45> ro<44> ro<43> ro<42> ro<41> ro<40> ro<39> ro<38> ro<37> ro<36> ro<35> ro<34> ro<33> ro<32> ro<31> ro<30> ro<29> ro<28> ro<27> ro<26> ro<25> ro<24> ro<23> ro<22> ro<21> ro<20> ro<19> ro<18> ro<17> ro<16> ro<15> ro<14> ro<13> ro<12> ro<11> ro<10> ro<9> ro<8> ro<7> ro<6> ro<5> ro<4> ro<3> ro<2> ro<1> rs_rising vdd vout vss ULDO_BANK
xi16 ro<4> ro<8> ro<12> ro<16> ro<20> ro<24> ro<28> ro<32> ro<36> ro<40> ro<44> ro<48> ro<52> ro<56> ro<60> ro<64> dout<0> dout<1> dout<2> dout<3> dout<4> dout<5> dout<6> dout<7> dout<8> dout<9> dout<10> dout<11> dout<12> dout<13> dout<14> dout<15> doutn<0> doutn<1> doutn<2> doutn<3> doutn<4> doutn<5> doutn<6> doutn<7> doutn<8> doutn<9> doutn<10> doutn<11> doutn<12> doutn<13> doutn<14> doutn<15> vdd vss Dlvlxft_16B
xi28 dout<0> mclk vdd vss CKND1HVT
xi27 sysclk doutn<7> doutn<15> sel<0> sel<1> ro<0> vdd vss MUX3D1HVT
.ends PWR_BANK
** End of subcircuit definition.

** Library name: tcbn65lphvt
** Cell name: DCAP8HVT
** View name: schematic
.subckt DCAP8HVT vdd vss
mi4 vss net9 vss vss nch_hvt l=880e-9 w=300e-9 m=1 nf=1 
m_u2 net11 net9 vss vss nch_hvt l=60e-9 w=300e-9 m=1 nf=1 
mi3 vdd net11 vdd vdd pch_hvt l=880e-9 w=430e-9 m=1 nf=1 
m_u1 net9 net11 vdd vdd pch_hvt l=60e-9 w=390e-9 m=1 nf=1 
.ends DCAP8HVT
** End of subcircuit definition.

** Library name: tcbn65lphvt
** Cell name: INVD1HVT
** View name: schematic
.subckt INVD1HVT i zn vdd vss
m0 zn i vss vss nch_hvt l=60e-9 w=390e-9 m=1 nf=1 
m1 zn i vdd vdd pch_hvt l=60e-9 w=520e-9 m=1 nf=1 
.ends INVD1HVT
** End of subcircuit definition.

** Library name: tcbn65lphvt
** Cell name: AN2D4HVT
** View name: schematic
.subckt AN2D4HVT a1 a2 z vdd vss
m0 z net5 vdd vdd pch_hvt l=60e-9 w=520e-9 m=1 nf=1 
m1 z net5 vdd vdd pch_hvt l=60e-9 w=520e-9 m=1 nf=1 
m2 z net5 vdd vdd pch_hvt l=60e-9 w=520e-9 m=1 nf=1 
m3 z net5 vdd vdd pch_hvt l=60e-9 w=520e-9 m=1 nf=1 
m4 net5 a1 vdd vdd pch_hvt l=60e-9 w=520e-9 m=1 nf=1 
m5 net5 a1 vdd vdd pch_hvt l=60e-9 w=520e-9 m=1 nf=1 
m6 net5 a2 vdd vdd pch_hvt l=60e-9 w=520e-9 m=1 nf=1 
m7 net5 a2 vdd vdd pch_hvt l=60e-9 w=520e-9 m=1 nf=1 
m8 z net5 vss vss nch_hvt l=60e-9 w=390e-9 m=1 nf=1 
m9 net57 a2 vss vss nch_hvt l=60e-9 w=390e-9 m=1 nf=1 
m10 z net5 vss vss nch_hvt l=60e-9 w=390e-9 m=1 nf=1 
m11 net44 a2 vss vss nch_hvt l=60e-9 w=390e-9 m=1 nf=1 
m12 z net5 vss vss nch_hvt l=60e-9 w=390e-9 m=1 nf=1 
m13 net5 a1 net44 vss nch_hvt l=60e-9 w=390e-9 m=1 nf=1 
m14 net5 a1 net57 vss nch_hvt l=60e-9 w=390e-9 m=1 nf=1 
m15 z net5 vss vss nch_hvt l=60e-9 w=390e-9 m=1 nf=1 
.ends AN2D4HVT
** End of subcircuit definition.

** Library name: tcbn65lphvt
** Cell name: INVD16HVT
** View name: schematic
.subckt INVD16HVT i zn vdd vss
m0 zn i vdd vdd pch_hvt l=60e-9 w=520e-9 m=1 nf=1 
m1 zn i vdd vdd pch_hvt l=60e-9 w=520e-9 m=1 nf=1 
m2 zn i vdd vdd pch_hvt l=60e-9 w=520e-9 m=1 nf=1 
m3 zn i vdd vdd pch_hvt l=60e-9 w=520e-9 m=1 nf=1 
m4 zn i vdd vdd pch_hvt l=60e-9 w=520e-9 m=1 nf=1 
m5 zn i vdd vdd pch_hvt l=60e-9 w=520e-9 m=1 nf=1 
m6 zn i vdd vdd pch_hvt l=60e-9 w=520e-9 m=1 nf=1 
m7 zn i vdd vdd pch_hvt l=60e-9 w=520e-9 m=1 nf=1 
m8 zn i vdd vdd pch_hvt l=60e-9 w=520e-9 m=1 nf=1 
m9 zn i vdd vdd pch_hvt l=60e-9 w=520e-9 m=1 nf=1 
m10 zn i vdd vdd pch_hvt l=60e-9 w=520e-9 m=1 nf=1 
m11 zn i vdd vdd pch_hvt l=60e-9 w=520e-9 m=1 nf=1 
m12 zn i vdd vdd pch_hvt l=60e-9 w=520e-9 m=1 nf=1 
m13 zn i vdd vdd pch_hvt l=60e-9 w=520e-9 m=1 nf=1 
m14 zn i vdd vdd pch_hvt l=60e-9 w=520e-9 m=1 nf=1 
m15 zn i vdd vdd pch_hvt l=60e-9 w=520e-9 m=1 nf=1 
m16 zn i vss vss nch_hvt l=60e-9 w=390e-9 m=1 nf=1 
m17 zn i vss vss nch_hvt l=60e-9 w=390e-9 m=1 nf=1 
m18 zn i vss vss nch_hvt l=60e-9 w=390e-9 m=1 nf=1 
m19 zn i vss vss nch_hvt l=60e-9 w=390e-9 m=1 nf=1 
m20 zn i vss vss nch_hvt l=60e-9 w=390e-9 m=1 nf=1 
m21 zn i vss vss nch_hvt l=60e-9 w=390e-9 m=1 nf=1 
m22 zn i vss vss nch_hvt l=60e-9 w=390e-9 m=1 nf=1 
m23 zn i vss vss nch_hvt l=60e-9 w=390e-9 m=1 nf=1 
m24 zn i vss vss nch_hvt l=60e-9 w=390e-9 m=1 nf=1 
m25 zn i vss vss nch_hvt l=60e-9 w=390e-9 m=1 nf=1 
m26 zn i vss vss nch_hvt l=60e-9 w=390e-9 m=1 nf=1 
m27 zn i vss vss nch_hvt l=60e-9 w=390e-9 m=1 nf=1 
m28 zn i vss vss nch_hvt l=60e-9 w=390e-9 m=1 nf=1 
m29 zn i vss vss nch_hvt l=60e-9 w=390e-9 m=1 nf=1 
m30 zn i vss vss nch_hvt l=60e-9 w=390e-9 m=1 nf=1 
m31 zn i vss vss nch_hvt l=60e-9 w=390e-9 m=1 nf=1 
.ends INVD16HVT
** End of subcircuit definition.

** Library name: tcbn65lphvt
** Cell name: DEL015HVT
** View name: schematic
.subckt DEL015HVT i z vdd vss
m0 z net13 vss vss nch_hvt l=60e-9 w=390e-9 m=1 nf=1 
mi29 net25 net9 net28 vss nch_hvt l=60e-9 w=390e-9 m=1 nf=1 
mi30 net28 net9 vss vss nch_hvt l=60e-9 w=390e-9 m=1 nf=1 
mi37 net17 net5 vss vss nch_hvt l=60e-9 w=390e-9 m=1 nf=1 
mi28 net13 net9 net25 vss nch_hvt l=60e-9 w=390e-9 m=1 nf=1 
mi35 net9 net5 net44 vss nch_hvt l=60e-9 w=390e-9 m=1 nf=1 
m1 net5 i vss vss nch_hvt l=60e-9 w=390e-9 m=1 nf=1 
mi36 net44 net5 net17 vss nch_hvt l=60e-9 w=390e-9 m=1 nf=1 
m2 z net13 vdd vdd pch_hvt l=60e-9 w=520e-9 m=1 nf=1 
mi20 net57 net9 vdd vdd pch_hvt l=60e-9 w=520e-9 m=1 nf=1 
mi23 net13 net9 net25 vdd pch_hvt l=60e-9 w=520e-9 m=1 nf=1 
m3 net5 i vdd vdd pch_hvt l=60e-9 w=520e-9 m=1 nf=1 
mi21 net25 net9 net57 vdd pch_hvt l=60e-9 w=520e-9 m=1 nf=1 
mi32 net9 net5 net44 vdd pch_hvt l=60e-9 w=520e-9 m=1 nf=1 
mi31 net44 net5 net33 vdd pch_hvt l=60e-9 w=520e-9 m=1 nf=1 
mi7 net33 net5 vdd vdd pch_hvt l=60e-9 w=520e-9 m=1 nf=1 
.ends DEL015HVT
** End of subcircuit definition.

** Library name: civic
** Cell name: LDO_CK_GEN
** View name: schematic
.subckt LDO_CK_GEN sel_rst sysclk vdd vss
xi19 net26 net24 vdd vss INVD1HVT
xi0 sysclk net24 net25 vdd vss AN2D4HVT
xi44 net25 sel_rst vdd vss INVD16HVT
xi4 sysclk net26 vdd vss DEL015HVT
.ends LDO_CK_GEN
** End of subcircuit definition.

** Library name: tcbn65lphvt
** Cell name: CKND0HVT
** View name: schematic
.subckt CKND0HVT i zn vdd vss
m_u2 zn i vss vss nch_hvt l=60e-9 w=150e-9 m=1 nf=1 
m_u1 zn i vdd vdd pch_hvt l=60e-9 w=260e-9 m=1 nf=1 
.ends CKND0HVT
** End of subcircuit definition.

** Library name: tcbn65lphvt
** Cell name: ND3D1HVT
** View name: schematic
.subckt ND3D1HVT a1 a2 a3 zn vdd vss
m0 net9 a2 net1 vss nch_hvt l=60e-9 w=390e-9 m=1 nf=1 
m1 zn a1 net9 vss nch_hvt l=60e-9 w=390e-9 m=1 nf=1 
m2 net1 a3 vss vss nch_hvt l=60e-9 w=390e-9 m=1 nf=1 
m3 zn a1 vdd vdd pch_hvt l=60e-9 w=520e-9 m=1 nf=1 
m4 zn a3 vdd vdd pch_hvt l=60e-9 w=520e-9 m=1 nf=1 
m5 zn a2 vdd vdd pch_hvt l=60e-9 w=520e-9 m=1 nf=1 
.ends ND3D1HVT
** End of subcircuit definition.

** Library name: tcbn65lphvt
** Cell name: OAI21D1HVT
** View name: schematic
.subckt OAI21D1HVT a1 a2 b zn vdd vss
m0 net9 a2 vdd vdd pch_hvt l=60e-9 w=520e-9 m=1 nf=1 
m_u9 zn b vdd vdd pch_hvt l=60e-9 w=520e-9 m=1 nf=1 
m1 zn a1 net9 vdd pch_hvt l=60e-9 w=520e-9 m=1 nf=1 
m_u3 zn a2 net24 vss nch_hvt l=60e-9 w=390e-9 m=1 nf=1 
m_u4 net24 b vss vss nch_hvt l=60e-9 w=390e-9 m=1 nf=1 
m_u2 zn a1 net24 vss nch_hvt l=60e-9 w=390e-9 m=1 nf=1 
.ends OAI21D1HVT
** End of subcircuit definition.

** Library name: tcbn65lphvt
** Cell name: ND2D1HVT
** View name: schematic
.subckt ND2D1HVT a1 a2 zn vdd vss
m0 zn a1 net1 vss nch_hvt l=60e-9 w=390e-9 m=1 nf=1 
m1 net1 a2 vss vss nch_hvt l=60e-9 w=390e-9 m=1 nf=1 
m2 zn a1 vdd vdd pch_hvt l=60e-9 w=520e-9 m=1 nf=1 
m3 zn a2 vdd vdd pch_hvt l=60e-9 w=520e-9 m=1 nf=1 
.ends ND2D1HVT
** End of subcircuit definition.

** Library name: tcbn65lphvt
** Cell name: CKXOR2D1HVT
** View name: schematic
.subckt CKXOR2D1HVT a1 a2 z vdd vss
m0 net27 a1 net44 vdd pch_hvt l=60e-9 w=290e-9 m=1 nf=1 
m1 z net44 vdd vdd pch_hvt l=60e-9 w=520e-9 m=1 nf=1 
m2 net5 net27 vdd vdd pch_hvt l=60e-9 w=290e-9 m=1 nf=1 
m3 net9 a1 vdd vdd pch_hvt l=60e-9 w=260e-9 m=1 nf=1 
m4 net5 net9 net44 vdd pch_hvt l=60e-9 w=290e-9 m=1 nf=1 
m5 net27 a2 vdd vdd pch_hvt l=60e-9 w=520e-9 m=1 nf=1 
m6 net27 net9 net44 vss nch_hvt l=60e-9 w=195e-9 m=1 nf=1 
m7 net5 a1 net44 vss nch_hvt l=60e-9 w=195e-9 m=1 nf=1 
m8 net9 a1 vss vss nch_hvt l=60e-9 w=195e-9 m=1 nf=1 
m9 z net44 vss vss nch_hvt l=60e-9 w=390e-9 m=1 nf=1 
m10 net27 a2 vss vss nch_hvt l=60e-9 w=390e-9 m=1 nf=1 
m11 net5 net27 vss vss nch_hvt l=60e-9 w=195e-9 m=1 nf=1 
.ends CKXOR2D1HVT
** End of subcircuit definition.

** Library name: tcbn65lphvt
** Cell name: INVD3HVT
** View name: schematic
.subckt INVD3HVT i zn vdd vss
m0 zn i vss vss nch_hvt l=60e-9 w=390e-9 m=1 nf=1 
m1 zn i vss vss nch_hvt l=60e-9 w=390e-9 m=1 nf=1 
m2 zn i vss vss nch_hvt l=60e-9 w=390e-9 m=1 nf=1 
m3 zn i vdd vdd pch_hvt l=60e-9 w=520e-9 m=1 nf=1 
m4 zn i vdd vdd pch_hvt l=60e-9 w=520e-9 m=1 nf=1 
m5 zn i vdd vdd pch_hvt l=60e-9 w=520e-9 m=1 nf=1 
.ends INVD3HVT
** End of subcircuit definition.

** Library name: tcbn65lphvt
** Cell name: CKND6HVT
** View name: schematic
.subckt CKND6HVT i zn vdd vss
m_u1_0 zn i vdd vdd pch_hvt l=60e-9 w=520e-9 m=1 nf=1 
m_u1_3 zn i vdd vdd pch_hvt l=60e-9 w=520e-9 m=1 nf=1 
m_u1_2 zn i vdd vdd pch_hvt l=60e-9 w=520e-9 m=1 nf=1 
m_u1_4 zn i vdd vdd pch_hvt l=60e-9 w=520e-9 m=1 nf=1 
m_u1_1 zn i vdd vdd pch_hvt l=60e-9 w=520e-9 m=1 nf=1 
m_u1_5 zn i vdd vdd pch_hvt l=60e-9 w=520e-9 m=1 nf=1 
di3 vss i ndio_hvt area=66e-15 pj=1.18e-6 m=1
m_u2_1 zn i vss vss nch_hvt l=60e-9 w=310e-9 m=1 nf=1 
m_u2_3 zn i vss vss nch_hvt l=60e-9 w=310e-9 m=1 nf=1 
m_u2_4 zn i vss vss nch_hvt l=60e-9 w=310e-9 m=1 nf=1 
m_u2_0 zn i vss vss nch_hvt l=60e-9 w=310e-9 m=1 nf=1 
m_u2_2 zn i vss vss nch_hvt l=60e-9 w=310e-9 m=1 nf=1 
m_u2_5 zn i vss vss nch_hvt l=60e-9 w=310e-9 m=1 nf=1 
.ends CKND6HVT
** End of subcircuit definition.

** Library name: tcbn65lphvt
** Cell name: DFCNQD1HVT
** View name: schematic
.subckt DFCNQD1HVT d cp cdn q vdd vss
mi4 net53 net5 vss vss nch_hvt l=60e-9 w=350e-9 m=1 nf=1 
m0 net81 net51 net9 vss nch_hvt l=60e-9 w=390e-9 m=1 nf=1 
m1 net37 net97 vss vss nch_hvt l=60e-9 w=160e-9 m=1 nf=1 
mi29 net51 net5 net44 vss nch_hvt l=60e-9 w=150e-9 m=1 nf=1 
mi15 net37 net63 net51 vss nch_hvt l=60e-9 w=160e-9 m=1 nf=1 
m2 net63 net5 vss vss nch_hvt l=60e-9 w=195e-9 m=1 nf=1 
mi5 net97 d net53 vss nch_hvt l=60e-9 w=350e-9 m=1 nf=1 
mi49 net20 cdn vss vss nch_hvt l=60e-9 w=150e-9 m=1 nf=1 
mi26 net44 net81 vss vss nch_hvt l=60e-9 w=150e-9 m=1 nf=1 
mi48 net17 net37 net20 vss nch_hvt l=60e-9 w=150e-9 m=1 nf=1 
m3 q net81 vss vss nch_hvt l=60e-9 w=390e-9 m=1 nf=1 
m4 net9 cdn vss vss nch_hvt l=60e-9 w=390e-9 m=1 nf=1 
m5 net5 cp vss vss nch_hvt l=60e-9 w=195e-9 m=1 nf=1 
mi47 net97 net63 net17 vss nch_hvt l=60e-9 w=150e-9 m=1 nf=1 
m6 net5 cp vdd vdd pch_hvt l=60e-9 w=260e-9 m=1 nf=1 
m7 net63 net5 vdd vdd pch_hvt l=60e-9 w=260e-9 m=1 nf=1 
mi43 net101 net37 vdd vdd pch_hvt l=60e-9 w=150e-9 m=1 nf=1 
mi6 net97 d net100 vdd pch_hvt l=60e-9 w=460e-9 m=1 nf=1 
m8 q net81 vdd vdd pch_hvt l=60e-9 w=520e-9 m=1 nf=1 
mi44 net101 cdn vdd vdd pch_hvt l=60e-9 w=150e-9 m=1 nf=1 
m9 net37 net97 vdd vdd pch_hvt l=60e-9 w=220e-9 m=1 nf=1 
m10 net81 net51 vdd vdd pch_hvt l=60e-9 w=400e-9 m=1 nf=1 
mi16 net37 net5 net51 vdd pch_hvt l=60e-9 w=245e-9 m=1 nf=1 
mi24 net72 net81 vdd vdd pch_hvt l=60e-9 w=150e-9 m=1 nf=1 
mi28 net51 net63 net72 vdd pch_hvt l=60e-9 w=150e-9 m=1 nf=1 
mi45 net97 net5 net101 vdd pch_hvt l=60e-9 w=150e-9 m=1 nf=1 
mi7 net100 net63 vdd vdd pch_hvt l=60e-9 w=460e-9 m=1 nf=1 
m11 net81 cdn vdd vdd pch_hvt l=60e-9 w=400e-9 m=1 nf=1 
.ends DFCNQD1HVT
** End of subcircuit definition.

** Library name: tcbn65lphvt
** Cell name: CKBD1HVT
** View name: schematic
.subckt CKBD1HVT i z vdd vss
m_u15 net5 i vss vss nch_hvt l=60e-9 w=310e-9 m=1 nf=1 
mu23 z net5 vss vss nch_hvt l=60e-9 w=310e-9 m=1 nf=1 
m_u3 net5 i vdd vdd pch_hvt l=60e-9 w=520e-9 m=1 nf=1 
mu21 z net5 vdd vdd pch_hvt l=60e-9 w=520e-9 m=1 nf=1 
.ends CKBD1HVT
** End of subcircuit definition.

** Library name: tcbn65lphvt
** Cell name: OAI32D1HVT
** View name: schematic
.subckt OAI32D1HVT a1 a2 a3 b1 b2 zn vdd vss
m0 net17 b1 vdd vdd pch_hvt l=60e-9 w=520e-9 m=1 nf=1 
m1 net13 a1 vdd vdd pch_hvt l=60e-9 w=520e-9 m=1 nf=1 
m2 zn b2 net17 vdd pch_hvt l=60e-9 w=520e-9 m=1 nf=1 
m3 zn a3 net1 vdd pch_hvt l=60e-9 w=520e-9 m=1 nf=1 
m4 net1 a2 net13 vdd pch_hvt l=60e-9 w=520e-9 m=1 nf=1 
mi1 zn a1 net25 vss nch_hvt l=60e-9 w=390e-9 m=1 nf=1 
mi3 zn a3 net25 vss nch_hvt l=60e-9 w=390e-9 m=1 nf=1 
mi2 zn a2 net25 vss nch_hvt l=60e-9 w=390e-9 m=1 nf=1 
mi0 net25 b2 vss vss nch_hvt l=60e-9 w=390e-9 m=1 nf=1 
m_u4 net25 b1 vss vss nch_hvt l=60e-9 w=390e-9 m=1 nf=1 
.ends OAI32D1HVT
** End of subcircuit definition.

** Library name: tcbn65lphvt
** Cell name: AOI32D1HVT
** View name: schematic
.subckt AOI32D1HVT a1 a2 a3 b1 b2 zn vdd vss
mu18 zn a3 net20 vdd pch_hvt l=60e-9 w=520e-9 m=1 nf=1 
mu19 net20 b2 vdd vdd pch_hvt l=60e-9 w=520e-9 m=1 nf=1 
mu16 zn a2 net20 vdd pch_hvt l=60e-9 w=520e-9 m=1 nf=1 
mu20 net20 b1 vdd vdd pch_hvt l=60e-9 w=520e-9 m=1 nf=1 
mu17 zn a1 net20 vdd pch_hvt l=60e-9 w=520e-9 m=1 nf=1 
m0 zn a1 net21 vss nch_hvt l=60e-9 w=390e-9 m=1 nf=1 
m1 zn b1 net36 vss nch_hvt l=60e-9 w=390e-9 m=1 nf=1 
m2 net36 b2 vss vss nch_hvt l=60e-9 w=390e-9 m=1 nf=1 
m3 net25 a3 vss vss nch_hvt l=60e-9 w=390e-9 m=1 nf=1 
m4 net21 a2 net25 vss nch_hvt l=60e-9 w=390e-9 m=1 nf=1 
.ends AOI32D1HVT
** End of subcircuit definition.

** Library name: tcbn65lphvt
** Cell name: AOI211XD0HVT
** View name: schematic
.subckt AOI211XD0HVT a1 a2 b c zn vdd vss
m_u12 zn c vss vss nch_hvt l=60e-9 w=195e-9 m=1 nf=1 
m0 zn a1 net1 vss nch_hvt l=60e-9 w=195e-9 m=1 nf=1 
m_u13 zn b vss vss nch_hvt l=60e-9 w=195e-9 m=1 nf=1 
m1 net1 a2 vss vss nch_hvt l=60e-9 w=195e-9 m=1 nf=1 
m2 net25 b net17 vdd pch_hvt l=60e-9 w=520e-9 m=1 nf=1 
m_u3 net25 a1 zn vdd pch_hvt l=60e-9 w=520e-9 m=1 nf=1 
mi0 net25 a2 zn vdd pch_hvt l=60e-9 w=520e-9 m=1 nf=1 
m3 net17 c vdd vdd pch_hvt l=60e-9 w=520e-9 m=1 nf=1 
.ends AOI211XD0HVT
** End of subcircuit definition.

** Library name: tcbn65lphvt
** Cell name: DFCSNQD4HVT
** View name: schematic
.subckt DFCSNQD4HVT d cp cdn sdn q vdd vss
m0 net81 net83 net17 vss nch_hvt l=60e-9 w=390e-9 m=1 nf=1 
m1 q net81 vss vss nch_hvt l=60e-9 w=390e-9 m=1 nf=1 
m2 net36 cdn vss vss nch_hvt l=60e-9 w=390e-9 m=1 nf=1 
m3 net24 net81 vss vss nch_hvt l=60e-9 w=210e-9 m=1 nf=1 
mi20 net5 net67 net83 vss nch_hvt l=60e-9 w=230e-9 m=1 nf=1 
m4 net61 net63 vss vss nch_hvt l=60e-9 w=210e-9 m=1 nf=1 
mi23 net63 net67 net25 vss nch_hvt l=60e-9 w=150e-9 m=1 nf=1 
m5 q net81 vss vss nch_hvt l=60e-9 w=390e-9 m=1 nf=1 
mi22 net49 net51 net83 vss nch_hvt l=60e-9 w=150e-9 m=1 nf=1 