** Generated for: hspiceD
** Generated on: Dec 30 23:39:36 2019
** Design library name: TempSensorLayout_PostLayout
** Design cell name: TempSensorCore_Pre
** Design view name: schematic
.PARAM cu


.TEMP 25.0
.OPTION
+    ARTIST=2
+    INGOLD=2
+    PARHIER=LOCAL
+    PSF=2
.LIB "/home/lab.apps/vlsiapps/kits/tsmc/N65LP/models/hspice/toplevel.l" tt_lib

** Library name: TempSensorLayout
** Cell name: TunableRes_NonUniform
** View name: schematic
.subckt TunableRes_NonUniform rtocap rtune<0> rtune<1> rtune<2> rtune<3> rtune<4> rtune<5> rtune<6> rtune<7>
xr7  rtune<7> rtune<6>   rppolys l=43.5e-6 w=970e-9 m=1 mf=1 mismatchflag=1

xr6  rtune<6> rtune<5>   rppolys l=33.51e-6 w=970e-9 m=1 mf=1 mismatchflag=1

xr5  rtune<5> rtune<4>   rppolys l=28.8e-6 w=930e-9 m=1 mf=1 mismatchflag=1

xr4  rtune<4> rtune<3>   rppolys l=19.32e-6 w=930e-9 m=1 mf=1 mismatchflag=1

xr3  rtune<3> rtune<2>   rppolys l=28.8e-6 w=930e-9 m=1 mf=1 mismatchflag=1

xr2  rtune<2> rtune<1>   rppolys l=33.51e-6 w=970e-9 m=1 mf=1 mismatchflag=1

xr1  rtune<1> rtune<0>   rppolys l=43.5e-6 w=970e-9 m=1 mf=1 mismatchflag=1

**Series configuration of R0
xr0_1__dmy0  rtune<0> xr0_1__dmy0  rppolys l=77.1e-6 w=1e-6 m=1 mf=1 mismatchflag=1
xr0_2__dmy0  xr0_1__dmy0 xr0_2__dmy0  rppolys l=77.1e-6 w=1e-6 m=1 mf=1 mismatchflag=1
xr0_3__dmy0  xr0_2__dmy0 xr0_3__dmy0  rppolys l=77.1e-6 w=1e-6 m=1 mf=1 mismatchflag=1
xr0_4__dmy0  xr0_3__dmy0 xr0_4__dmy0  rppolys l=77.1e-6 w=1e-6 m=1 mf=1 mismatchflag=1
xr0_5__dmy0  xr0_4__dmy0 xr0_5__dmy0  rppolys l=77.1e-6 w=1e-6 m=1 mf=1 mismatchflag=1
xr0_6__dmy0  xr0_5__dmy0 xr0_6__dmy0  rppolys l=77.1e-6 w=1e-6 m=1 mf=1 mismatchflag=1
xr0_7__dmy0  xr0_6__dmy0 xr0_7__dmy0  rppolys l=77.1e-6 w=1e-6 m=1 mf=1 mismatchflag=1
xr0_8__dmy0  xr0_7__dmy0 rtocap  rppolys l=77.1e-6 w=1e-6 m=1 mf=1 mismatchflag=1
**End of R0

.ends TunableRes_NonUniform
** End of subcircuit definition.

** Library name: Temp_Sensor
** Cell name: SwitchCap_64X_TG
** View name: schematic
.subckt SwitchCap_64X_TG vdd vss vctl0 vctlin von vop
c1 net08 net07 '64*cu' IC=0
xm5 von vctlin net07 vss nch_lvt_mac l=60e-9 w=420e-9 multi=4 nf=1 
xm3 vop vctlin net08 vss nch_lvt_mac l=60e-9 w=420e-9 multi=4 nf=1 
xm0 net08 vctl0 vss vss nch_lvt_mac l=60e-9 w=420e-9 multi=4 nf=1 
xm4 net07 vctl0 vss vss nch_lvt_mac l=60e-9 w=420e-9 multi=4 nf=1 
m2 net08 vctl0 vop vdd pch_lvt l=60e-9 w=560e-9 m=4 nf=1 
m1 net07 vctl0 von vdd pch_lvt l=60e-9 w=560e-9 m=4 nf=1 
.ends SwitchCap_64X_TG
** End of subcircuit definition.

** Library name: Temp_Sensor
** Cell name: SwitchCap_1X_TG
** View name: schematic
.subckt SwitchCap_1X_TG vdd vss vctl0 vctlin von vop
c1 net08 net07 cu IC=0
xm5 von vctlin net07 vss nch_lvt_mac l=60e-9 w=200e-9 multi=1 nf=1 
xm3 vop vctlin net08 vss nch_lvt_mac l=60e-9 w=200e-9 multi=1 nf=1 
xm0 net08 vctl0 vss vss nch_lvt_mac l=60e-9 w=200e-9 multi=1 nf=1 
xm4 net07 vctl0 vss vss nch_lvt_mac l=60e-9 w=200e-9 multi=1 nf=1 
m2 net08 vctl0 vop vdd pch_lvt l=60e-9 w=260e-9 m=1 nf=1 
m1 net07 vctl0 von vdd pch_lvt l=60e-9 w=260e-9 m=1 nf=1 
.ends SwitchCap_1X_TG
** End of subcircuit definition.

** Library name: Temp_Sensor
** Cell name: SwitchCap_2X_TG
** View name: schematic
.subckt SwitchCap_2X_TG vdd vss vctl0 vctlin von vop
c1 net08 net07 '2*cu' IC=0
xm5 von vctlin net07 vss nch_lvt_mac l=60e-9 w=200e-9 multi=1 nf=1 
xm3 vop vctlin net08 vss nch_lvt_mac l=60e-9 w=200e-9 multi=1 nf=1 
xm0 net08 vctl0 vss vss nch_lvt_mac l=60e-9 w=200e-9 multi=1 nf=1 
xm4 net07 vctl0 vss vss nch_lvt_mac l=60e-9 w=200e-9 multi=1 nf=1 
m2 net08 vctl0 vop vdd pch_lvt l=60e-9 w=260e-9 m=1 nf=1 
m1 net07 vctl0 von vdd pch_lvt l=60e-9 w=260e-9 m=1 nf=1 
.ends SwitchCap_2X_TG
** End of subcircuit definition.

** Library name: Temp_Sensor
** Cell name: SwitchCap_4X_TG
** View name: schematic
.subckt SwitchCap_4X_TG vdd vss vctl0 vctlin von vop
c1 net08 net07 '4*cu' IC=0
xm5 von vctlin net07 vss nch_lvt_mac l=60e-9 w=200e-9 multi=1 nf=1 
xm3 vop vctlin net08 vss nch_lvt_mac l=60e-9 w=200e-9 multi=1 nf=1 
xm0 net08 vctl0 vss vss nch_lvt_mac l=60e-9 w=200e-9 multi=1 nf=1 
xm4 net07 vctl0 vss vss nch_lvt_mac l=60e-9 w=200e-9 multi=1 nf=1 
m2 net08 vctl0 vop vdd pch_lvt l=60e-9 w=260e-9 m=1 nf=1 
m1 net07 vctl0 von vdd pch_lvt l=60e-9 w=260e-9 m=1 nf=1 
.ends SwitchCap_4X_TG
** End of subcircuit definition.

** Library name: Temp_Sensor
** Cell name: SwitchCap_8X_TG
** View name: schematic
.subckt SwitchCap_8X_TG vdd vss vctl0 vctlin von vop
c1 net08 net07 '8*cu' IC=0
xm5 von vctlin net07 vss nch_lvt_mac l=60e-9 w=240e-9 multi=1 nf=1 
xm3 vop vctlin net08 vss nch_lvt_mac l=60e-9 w=240e-9 multi=1 nf=1 
xm0 net08 vctl0 vss vss nch_lvt_mac l=60e-9 w=240e-9 multi=1 nf=1 
xm4 net07 vctl0 vss vss nch_lvt_mac l=60e-9 w=240e-9 multi=1 nf=1 
m2 net08 vctl0 vop vdd pch_lvt l=60e-9 w=300e-9 m=1 nf=1 
m1 net07 vctl0 von vdd pch_lvt l=60e-9 w=300e-9 m=1 nf=1 
.ends SwitchCap_8X_TG
** End of subcircuit definition.

** Library name: Temp_Sensor
** Cell name: SwitchCap_16X_TG
** View name: schematic
.subckt SwitchCap_16X_TG vdd vss vctl0 vctlin von vop
c1 net08 net07 '16*cu' IC=0
xm5 von vctlin net07 vss nch_lvt_mac l=60e-9 w=460e-9 multi=1 nf=1 
xm3 vop vctlin net08 vss nch_lvt_mac l=60e-9 w=460e-9 multi=1 nf=1 
xm0 net08 vctl0 vss vss nch_lvt_mac l=60e-9 w=460e-9 multi=1 nf=1 
xm4 net07 vctl0 vss vss nch_lvt_mac l=60e-9 w=460e-9 multi=1 nf=1 
m2 net08 vctl0 vop vdd pch_lvt l=60e-9 w=600e-9 m=1 nf=1 
m1 net07 vctl0 von vdd pch_lvt l=60e-9 w=600e-9 m=1 nf=1 
.ends SwitchCap_16X_TG
** End of subcircuit definition.

** Library name: Temp_Sensor
** Cell name: SwitchCap_32X_TG
** View name: schematic
.subckt SwitchCap_32X_TG vdd vss vctl0 vctlin von vop
c1 net08 net07 '32*cu' IC=0
xm5 von vctlin net07 vss nch_lvt_mac l=60e-9 w=440e-9 multi=2 nf=1 
xm3 vop vctlin net08 vss nch_lvt_mac l=60e-9 w=440e-9 multi=2 nf=1 
xm0 net08 vctl0 vss vss nch_lvt_mac l=60e-9 w=440e-9 multi=2 nf=1 
xm4 net07 vctl0 vss vss nch_lvt_mac l=60e-9 w=440e-9 multi=2 nf=1 
m2 net08 vctl0 vop vdd pch_lvt l=60e-9 w=580e-9 m=2 nf=1 
m1 net07 vctl0 von vdd pch_lvt l=60e-9 w=580e-9 m=2 nf=1 
.ends SwitchCap_32X_TG
** End of subcircuit definition.

** Library name: Temp_Sensor
** Cell name: SwitchCap_128X_TG
** View name: schematic
.subckt SwitchCap_128X_TG vdd vss vctl0 vctlin von vop
c1 net08 net07 '128*cu' IC=0
xm5 von vctlin net07 vss nch_lvt_mac l=60e-9 w=400e-9 multi=8 nf=1 
xm3 vop vctlin net08 vss nch_lvt_mac l=60e-9 w=400e-9 multi=8 nf=1 
xm0 net08 vctl0 vss vss nch_lvt_mac l=60e-9 w=400e-9 multi=8 nf=1 
xm4 net07 vctl0 vss vss nch_lvt_mac l=60e-9 w=400e-9 multi=8 nf=1 
m2 net08 vctl0 vop vdd pch_lvt l=60e-9 w=540e-9 m=8 nf=1 
m1 net07 vctl0 von vdd pch_lvt l=60e-9 w=540e-9 m=8 nf=1 
.ends SwitchCap_128X_TG
** End of subcircuit definition.

** Library name: Temp_Sensor
** Cell name: SwitchCap_256X_TG
** View name: schematic
.subckt SwitchCap_256X_TG vdd vss vctl0 vctlin von vop
c1 net08 net07 '256*cu' IC=0
xm5 von vctlin net07 vss nch_lvt_mac l=60e-9 w=740e-9 multi=8 nf=1 
xm3 vop vctlin net08 vss nch_lvt_mac l=60e-9 w=740e-9 multi=8 nf=1 
xm0 net08 vctl0 vss vss nch_lvt_mac l=60e-9 w=740e-9 multi=8 nf=1 
xm4 net07 vctl0 vss vss nch_lvt_mac l=60e-9 w=740e-9 multi=8 nf=1 
m2 net08 vctl0 vop vdd pch_lvt l=60e-9 w=1.02e-6 m=8 nf=1 
m1 net07 vctl0 von vdd pch_lvt l=60e-9 w=1.02e-6 m=8 nf=1 
.ends SwitchCap_256X_TG
** End of subcircuit definition.

** Library name: TempSensorLayout
** Cell name: CapArray_Schematic
** View name: schematic
.subckt CapArray_Schematic vcn vcp vdd vss vctl0<8> vctl0<7> vctl0<6> vctl0<5> vctl0<4> vctl0<3> vctl0<2> vctl0<1> vctl0<0> vctlinp<8> vctlinp<7> vctlinp<6> vctlinp<5> vctlinp<4> vctlinp<3> vctlinp<2> vctlinp<1> vctlinp<0>
xi37 vdd vss vctl0<6> vctlinp<6> vcn vcp SwitchCap_64X_TG
xi43 vdd vss vctl0<0> vctlinp<0> vcn vcp SwitchCap_1X_TG
xi42 vdd vss vctl0<1> vctlinp<1> vcn vcp SwitchCap_2X_TG
xi41 vdd vss vctl0<2> vctlinp<2> vcn vcp SwitchCap_4X_TG
xi40 vdd vss vctl0<3> vctlinp<3> vcn vcp SwitchCap_8X_TG
xi39 vdd vss vctl0<4> vctlinp<4> vcn vcp SwitchCap_16X_TG
xi38 vdd vss vctl0<5> vctlinp<5> vcn vcp SwitchCap_32X_TG
xi36 vdd vss vctl0<7> vctlinp<7> vcn vcp SwitchCap_128X_TG
xi49 vdd vss vctl0<8> vctlinp<8> vcn vcp SwitchCap_256X_TG
.ends CapArray_Schematic
** End of subcircuit definition.

** Library name: TempSensorLayout
** Cell name: PolyPhaseFilter
** View name: schematic
.subckt PolyPhaseFilter inp inphase<7> inphase<6> inphase<5> inphase<4> inphase<3> inphase<2> inphase<1> inphase<0> outp outphase<7> outphase<6> outphase<5> outphase<4> outphase<3> outphase<2> outphase<1> outphase<0> vcn vcp vctl0<8> vctl0<7> vctl0<6> vctl0<5> vctl0<4> vctl0<3> vctl0<2> vctl0<1> vctl0<0> vctlin<8> vctlin<7> vctlin<6> vctlin<5> vctlin<4> vctlin<3> vctlin<2> vctlin<1> vctlin<0> vdd vss
xi1 vcn outphase<0> outphase<1> outphase<2> outphase<3> outphase<4> outphase<5> outphase<6> outphase<7> TunableRes_NonUniform
xi0 vcp inphase<0> inphase<1> inphase<2> inphase<3> inphase<4> inphase<5> inphase<6> inphase<7> TunableRes_NonUniform
xi2 vcn vcp vdd vss vctl0<8> vctl0<7> vctl0<6> vctl0<5> vctl0<4> vctl0<3> vctl0<2> vctl0<1> vctl0<0> vctlin<8> vctlin<7> vctlin<6> vctlin<5> vctlin<4> vctlin<3> vctlin<2> vctlin<1> vctlin<0> CapArray_Schematic
xc0 vcp vcn vdd crtmom nv=20 nh=42 w=100e-9 s=100e-9 stm=2 spm=7 mf=8 mismatchflag=0
**Series configuration of R1
xr1_1__dmy0  inp xr1_1__dmy0  rppolys l=84.4e-6 w=1.4e-6 m=1 mf=1 mismatchflag=1
xr1_2__dmy0  xr1_1__dmy0 xr1_2__dmy0  rppolys l=84.4e-6 w=1.4e-6 m=1 mf=1 mismatchflag=1
xr1_3__dmy0  xr1_2__dmy0 xr1_3__dmy0  rppolys l=84.4e-6 w=1.4e-6 m=1 mf=1 mismatchflag=1
xr1_4__dmy0  xr1_3__dmy0 xr1_4__dmy0  rppolys l=84.4e-6 w=1.4e-6 m=1 mf=1 mismatchflag=1
xr1_5__dmy0  xr1_4__dmy0 xr1_5__dmy0  rppolys l=84.4e-6 w=1.4e-6 m=1 mf=1 mismatchflag=1
xr1_6__dmy0  xr1_5__dmy0 xr1_6__dmy0  rppolys l=84.4e-6 w=1.4e-6 m=1 mf=1 mismatchflag=1
xr1_7__dmy0  xr1_6__dmy0 xr1_7__dmy0  rppolys l=84.4e-6 w=1.4e-6 m=1 mf=1 mismatchflag=1
xr1_8__dmy0  xr1_7__dmy0 xr1_8__dmy0  rppolys l=84.4e-6 w=1.4e-6 m=1 mf=1 mismatchflag=1
xr1_9__dmy0  xr1_8__dmy0 xr1_9__dmy0  rppolys l=84.4e-6 w=1.4e-6 m=1 mf=1 mismatchflag=1
xr1_10__dmy0  xr1_9__dmy0 xr1_10__dmy0  rppolys l=84.4e-6 w=1.4e-6 m=1 mf=1 mismatchflag=1
xr1_11__dmy0  xr1_10__dmy0 xr1_11__dmy0  rppolys l=84.4e-6 w=1.4e-6 m=1 mf=1 mismatchflag=1
xr1_12__dmy0  xr1_11__dmy0 xr1_12__dmy0  rppolys l=84.4e-6 w=1.4e-6 m=1 mf=1 mismatchflag=1
xr1_13__dmy0  xr1_12__dmy0 xr1_13__dmy0  rppolys l=84.4e-6 w=1.4e-6 m=1 mf=1 mismatchflag=1
xr1_14__dmy0  xr1_13__dmy0 xr1_14__dmy0  rppolys l=84.4e-6 w=1.4e-6 m=1 mf=1 mismatchflag=1
xr1_15__dmy0  xr1_14__dmy0 xr1_15__dmy0  rppolys l=84.4e-6 w=1.4e-6 m=1 mf=1 mismatchflag=1
xr1_16__dmy0  xr1_15__dmy0 xr1_16__dmy0  rppolys l=84.4e-6 w=1.4e-6 m=1 mf=1 mismatchflag=1
xr1_17__dmy0  xr1_16__dmy0 xr1_17__dmy0  rppolys l=84.4e-6 w=1.4e-6 m=1 mf=1 mismatchflag=1
xr1_18__dmy0  xr1_17__dmy0 xr1_18__dmy0  rppolys l=84.4e-6 w=1.4e-6 m=1 mf=1 mismatchflag=1
xr1_19__dmy0  xr1_18__dmy0 xr1_19__dmy0  rppolys l=84.4e-6 w=1.4e-6 m=1 mf=1 mismatchflag=1
xr1_20__dmy0  xr1_19__dmy0 xr1_20__dmy0  rppolys l=84.4e-6 w=1.4e-6 m=1 mf=1 mismatchflag=1
xr1_21__dmy0  xr1_20__dmy0 xr1_21__dmy0  rppolys l=84.4e-6 w=1.4e-6 m=1 mf=1 mismatchflag=1
xr1_22__dmy0  xr1_21__dmy0 xr1_22__dmy0  rppolys l=84.4e-6 w=1.4e-6 m=1 mf=1 mismatchflag=1
xr1_23__dmy0  xr1_22__dmy0 net16  rppolys l=84.4e-6 w=1.4e-6 m=1 mf=1 mismatchflag=1
**End of R1

**Series configuration of R0
xr0_1__dmy0  net05 xr0_1__dmy0  rppolys l=84.4e-6 w=1.4e-6 m=1 mf=1 mismatchflag=1
xr0_2__dmy0  xr0_1__dmy0 xr0_2__dmy0  rppolys l=84.4e-6 w=1.4e-6 m=1 mf=1 mismatchflag=1
xr0_3__dmy0  xr0_2__dmy0 xr0_3__dmy0  rppolys l=84.4e-6 w=1.4e-6 m=1 mf=1 mismatchflag=1
xr0_4__dmy0  xr0_3__dmy0 xr0_4__dmy0  rppolys l=84.4e-6 w=1.4e-6 m=1 mf=1 mismatchflag=1
xr0_5__dmy0  xr0_4__dmy0 xr0_5__dmy0  rppolys l=84.4e-6 w=1.4e-6 m=1 mf=1 mismatchflag=1
xr0_6__dmy0  xr0_5__dmy0 xr0_6__dmy0  rppolys l=84.4e-6 w=1.4e-6 m=1 mf=1 mismatchflag=1
xr0_7__dmy0  xr0_6__dmy0 xr0_7__dmy0  rppolys l=84.4e-6 w=1.4e-6 m=1 mf=1 mismatchflag=1
xr0_8__dmy0  xr0_7__dmy0 xr0_8__dmy0  rppolys l=84.4e-6 w=1.4e-6 m=1 mf=1 mismatchflag=1
xr0_9__dmy0  xr0_8__dmy0 xr0_9__dmy0  rppolys l=84.4e-6 w=1.4e-6 m=1 mf=1 mismatchflag=1
xr0_10__dmy0  xr0_9__dmy0 xr0_10__dmy0  rppolys l=84.4e-6 w=1.4e-6 m=1 mf=1 mismatchflag=1
xr0_11__dmy0  xr0_10__dmy0 xr0_11__dmy0  rppolys l=84.4e-6 w=1.4e-6 m=1 mf=1 mismatchflag=1
xr0_12__dmy0  xr0_11__dmy0 xr0_12__dmy0  rppolys l=84.4e-6 w=1.4e-6 m=1 mf=1 mismatchflag=1
xr0_13__dmy0  xr0_12__dmy0 xr0_13__dmy0  rppolys l=84.4e-6 w=1.4e-6 m=1 mf=1 mismatchflag=1
xr0_14__dmy0  xr0_13__dmy0 xr0_14__dmy0  rppolys l=84.4e-6 w=1.4e-6 m=1 mf=1 mismatchflag=1
xr0_15__dmy0  xr0_14__dmy0 xr0_15__dmy0  rppolys l=84.4e-6 w=1.4e-6 m=1 mf=1 mismatchflag=1
xr0_16__dmy0  xr0_15__dmy0 xr0_16__dmy0  rppolys l=84.4e-6 w=1.4e-6 m=1 mf=1 mismatchflag=1
xr0_17__dmy0  xr0_16__dmy0 xr0_17__dmy0  rppolys l=84.4e-6 w=1.4e-6 m=1 mf=1 mismatchflag=1
xr0_18__dmy0  xr0_17__dmy0 xr0_18__dmy0  rppolys l=84.4e-6 w=1.4e-6 m=1 mf=1 mismatchflag=1
xr0_19__dmy0  xr0_18__dmy0 xr0_19__dmy0  rppolys l=84.4e-6 w=1.4e-6 m=1 mf=1 mismatchflag=1
xr0_20__dmy0  xr0_19__dmy0 xr0_20__dmy0  rppolys l=84.4e-6 w=1.4e-6 m=1 mf=1 mismatchflag=1
xr0_21__dmy0  xr0_20__dmy0 xr0_21__dmy0  rppolys l=84.4e-6 w=1.4e-6 m=1 mf=1 mismatchflag=1
xr0_22__dmy0  xr0_21__dmy0 xr0_22__dmy0  rppolys l=84.4e-6 w=1.4e-6 m=1 mf=1 mismatchflag=1
xr0_23__dmy0  xr0_22__dmy0 outp  rppolys l=84.4e-6 w=1.4e-6 m=1 mf=1 mismatchflag=1
**End of R0

.ends PolyPhaseFilter
** End of subcircuit definition.

** Library name: tcbn65lplvt
** Cell name: INVD2LVT
** View name: schematic
.subckt INVD2LVT i zn vdd vss
m0 zn i vss vss nch_lvt l=60e-9 w=390e-9 m=1 nf=1 
m1 zn i vss vss nch_lvt l=60e-9 w=390e-9 m=1 nf=1 
m2 zn i vdd vdd pch_lvt l=60e-9 w=520e-9 m=1 nf=1 
m3 zn i vdd vdd pch_lvt l=60e-9 w=520e-9 m=1 nf=1 
.ends INVD2LVT
** End of subcircuit definition.

** Library name: tcbn65lplvt
** Cell name: DCAP8LVT
** View name: schematic
.subckt DCAP8LVT vdd vss
mi4 vss net9 vss vss nch_lvt l=880e-9 w=300e-9 m=1 nf=1 
m_u2 net11 net9 vss vss nch_lvt l=60e-9 w=300e-9 m=1 nf=1 
mi3 vdd net11 vdd vdd pch_lvt l=880e-9 w=430e-9 m=1 nf=1 
m_u1 net9 net11 vdd vdd pch_lvt l=60e-9 w=390e-9 m=1 nf=1 
.ends DCAP8LVT
** End of subcircuit definition.

** Library name: tcbn65lplvt
** Cell name: INVD1LVT
** View name: schematic
.subckt INVD1LVT i zn vdd vss
m0 zn i vss vss nch_lvt l=60e-9 w=390e-9 m=1 nf=1 
m1 zn i vdd vdd pch_lvt l=60e-9 w=520e-9 m=1 nf=1 
.ends INVD1LVT
** End of subcircuit definition.

** Library name: tcbn65lplvt
** Cell name: CKBD1LVT
** View name: schematic
.subckt CKBD1LVT i z vdd vss
m_u15 net5 i vss vss nch_lvt l=60e-9 w=310e-9 m=1 nf=1 
mu23 z net5 vss vss nch_lvt l=60e-9 w=310e-9 m=1 nf=1 
m_u3 net5 i vdd vdd pch_lvt l=60e-9 w=520e-9 m=1 nf=1 
mu21 z net5 vdd vdd pch_lvt l=60e-9 w=520e-9 m=1 nf=1 
.ends CKBD1LVT
** End of subcircuit definition.

** Library name: tcbn65lplvt
** Cell name: AN2D1LVT
** View name: schematic
.subckt AN2D1LVT a1 a2 z vdd vss
m0 z net5 vdd vdd pch_lvt l=60e-9 w=520e-9 m=1 nf=1 
m1 net5 a1 vdd vdd pch_lvt l=60e-9 w=260e-9 m=1 nf=1 
m2 net5 a2 vdd vdd pch_lvt l=60e-9 w=260e-9 m=1 nf=1 
m3 z net5 vss vss nch_lvt l=60e-9 w=390e-9 m=1 nf=1 
m4 net17 a2 vss vss nch_lvt l=60e-9 w=195e-9 m=1 nf=1 
m5 net5 a1 net17 vss nch_lvt l=60e-9 w=195e-9 m=1 nf=1 
.ends AN2D1LVT
** End of subcircuit definition.

** Library name: tcbn65lplvt
** Cell name: CKND1LVT
** View name: schematic
.subckt CKND1LVT i zn vdd vss
m_u2 zn i vss vss nch_lvt l=60e-9 w=310e-9 m=1 nf=1 
m_u1 zn i vdd vdd pch_lvt l=60e-9 w=520e-9 m=1 nf=1 
.ends CKND1LVT
** End of subcircuit definition.

** Library name: tcbn65lplvt
** Cell name: DFCND1LVT
** View name: schematic
.subckt DFCND1LVT d cp cdn q qn vdd vss
m0 qn net33 vss vss nch_lvt l=60e-9 w=390e-9 m=1 nf=1 
mi4 net53 net5 vss vss nch_lvt l=60e-9 w=350e-9 m=1 nf=1 
mi18 net33 net5 net79 vss nch_lvt l=60e-9 w=150e-9 m=1 nf=1 
m1 net95 net79 net9 vss nch_lvt l=60e-9 w=390e-9 m=1 nf=1 
m2 net81 net25 vss vss nch_lvt l=60e-9 w=190e-9 m=1 nf=1 
mi15 net81 net67 net79 vss nch_lvt l=60e-9 w=190e-9 m=1 nf=1 
m3 net33 net95 vss vss nch_lvt l=60e-9 w=195e-9 m=1 nf=1 
m4 net67 net5 vss vss nch_lvt l=60e-9 w=195e-9 m=1 nf=1 
mi5 net25 d net53 vss nch_lvt l=60e-9 w=350e-9 m=1 nf=1 
mi49 net20 cdn vss vss nch_lvt l=60e-9 w=150e-9 m=1 nf=1 
mi48 net17 net81 net20 vss nch_lvt l=60e-9 w=150e-9 m=1 nf=1 
m5 q net95 vss vss nch_lvt l=60e-9 w=390e-9 m=1 nf=1 
m6 net9 cdn vss vss nch_lvt l=60e-9 w=390e-9 m=1 nf=1 
m7 net5 cp vss vss nch_lvt l=60e-9 w=195e-9 m=1 nf=1 
mi47 net25 net67 net17 vss nch_lvt l=60e-9 w=150e-9 m=1 nf=1 
m8 net33 net95 vdd vdd pch_lvt l=60e-9 w=260e-9 m=1 nf=1 
m9 net5 cp vdd vdd pch_lvt l=60e-9 w=260e-9 m=1 nf=1 
m10 net67 net5 vdd vdd pch_lvt l=60e-9 w=260e-9 m=1 nf=1 
mi43 net72 net81 vdd vdd pch_lvt l=60e-9 w=150e-9 m=1 nf=1 
mi6 net25 d net104 vdd pch_lvt l=60e-9 w=460e-9 m=1 nf=1 
m11 qn net33 vdd vdd pch_lvt l=60e-9 w=520e-9 m=1 nf=1 
m12 q net95 vdd vdd pch_lvt l=60e-9 w=520e-9 m=1 nf=1 
mi44 net72 cdn vdd vdd pch_lvt l=60e-9 w=150e-9 m=1 nf=1 
mi17 net33 net67 net79 vdd pch_lvt l=60e-9 w=150e-9 m=1 nf=1 
m13 net81 net25 vdd vdd pch_lvt l=60e-9 w=220e-9 m=1 nf=1 
m14 net95 net79 vdd vdd pch_lvt l=60e-9 w=365e-9 m=1 nf=1 
mi16 net81 net5 net79 vdd pch_lvt l=60e-9 w=245e-9 m=1 nf=1 
mi45 net25 net5 net72 vdd pch_lvt l=60e-9 w=150e-9 m=1 nf=1 
mi7 net104 net67 vdd vdd pch_lvt l=60e-9 w=460e-9 m=1 nf=1 
m15 net95 cdn vdd vdd pch_lvt l=60e-9 w=365e-9 m=1 nf=1 
.ends DFCND1LVT
** End of subcircuit definition.

** Library name: tcbn65lplvt
** Cell name: CKND3LVT
** View name: schematic
.subckt CKND3LVT i zn vdd vss
m_u1_0 zn i vdd vdd pch_lvt l=60e-9 w=520e-9 m=1 nf=1 
m_u1_2 zn i vdd vdd pch_lvt l=60e-9 w=520e-9 m=1 nf=1 
m_u1_1 zn i vdd vdd pch_lvt l=60e-9 w=520e-9 m=1 nf=1 
m_u2_1 zn i vss vss nch_lvt l=60e-9 w=310e-9 m=1 nf=1 
m_u2_0 zn i vss vss nch_lvt l=60e-9 w=310e-9 m=1 nf=1 
m_u2_2 zn i vss vss nch_lvt l=60e-9 w=310e-9 m=1 nf=1 
.ends CKND3LVT
** End of subcircuit definition.

** Library name: tcbn65lplvt
** Cell name: CKND8LVT
** View name: schematic
.subckt CKND8LVT i zn vdd vss
m_u1_7 zn i vdd vdd pch_lvt l=60e-9 w=520e-9 m=1 nf=1 
m_u1_0 zn i vdd vdd pch_lvt l=60e-9 w=520e-9 m=1 nf=1 
m_u1_3 zn i vdd vdd pch_lvt l=60e-9 w=520e-9 m=1 nf=1 
m_u1_2 zn i vdd vdd pch_lvt l=60e-9 w=520e-9 m=1 nf=1 
m_u1_4 zn i vdd vdd pch_lvt l=60e-9 w=520e-9 m=1 nf=1 
m_u1_6 zn i vdd vdd pch_lvt l=60e-9 w=520e-9 m=1 nf=1 
m_u1_1 zn i vdd vdd pch_lvt l=60e-9 w=520e-9 m=1 nf=1 
m_u1_5 zn i vdd vdd pch_lvt l=60e-9 w=520e-9 m=1 nf=1 
di3 vss i ndio_lvt area=66e-15 pj=1.18e-6 m=1
m_u2_1 zn i vss vss nch_lvt l=60e-9 w=310e-9 m=1 nf=1 
m_u2_6 zn i vss vss nch_lvt l=60e-9 w=310e-9 m=1 nf=1 
m_u2_3 zn i vss vss nch_lvt l=60e-9 w=310e-9 m=1 nf=1 
m_u2_4 zn i vss vss nch_lvt l=60e-9 w=310e-9 m=1 nf=1 
m_u2_7 zn i vss vss nch_lvt l=60e-9 w=310e-9 m=1 nf=1 
m_u2_0 zn i vss vss nch_lvt l=60e-9 w=310e-9 m=1 nf=1 
m_u2_2 zn i vss vss nch_lvt l=60e-9 w=310e-9 m=1 nf=1 
m_u2_5 zn i vss vss nch_lvt l=60e-9 w=310e-9 m=1 nf=1 
.ends CKND8LVT
** End of subcircuit definition.

** Library name: TempSensorLayout
** Cell name: DFCND1LVT
** View name: schematic
.subckt DFCND1LVT_schematic cdn cp d qn vdd vss
m0 qn net33 vss vss nch_lvt l=60e-9 w=390e-9 m=1 nf=1 
mi4 net53 net5 vss vss nch_lvt l=60e-9 w=350e-9 m=1 nf=1 
mi18 net33 net5 net79 vss nch_lvt l=60e-9 w=150e-9 m=1 nf=1 
m1 net95 net79 net9 vss nch_lvt l=60e-9 w=390e-9 m=1 nf=1 
m2 net81 net25 vss vss nch_lvt l=60e-9 w=190e-9 m=1 nf=1 
mi15 net81 net67 net79 vss nch_lvt l=60e-9 w=190e-9 m=1 nf=1 
m3 net33 net95 vss vss nch_lvt l=60e-9 w=195e-9 m=1 nf=1 
m4 net67 net5 vss vss nch_lvt l=60e-9 w=195e-9 m=1 nf=1 
mi5 net25 d net53 vss nch_lvt l=60e-9 w=350e-9 m=1 nf=1 
mi49 net20 cdn vss vss nch_lvt l=60e-9 w=150e-9 m=1 nf=1 
mi48 net17 net81 net20 vss nch_lvt l=60e-9 w=150e-9 m=1 nf=1 
m5 net036 net95 vss vss nch_lvt l=60e-9 w=390e-9 m=1 nf=1 
m6 net9 cdn vss vss nch_lvt l=60e-9 w=390e-9 m=1 nf=1 
m7 net5 cp vss vss nch_lvt l=60e-9 w=195e-9 m=1 nf=1 
mi47 net25 net67 net17 vss nch_lvt l=60e-9 w=150e-9 m=1 nf=1 
m8 net33 net95 vdd vdd pch_lvt l=60e-9 w=260e-9 m=1 nf=1 
m9 net5 cp vdd vdd pch_lvt l=60e-9 w=260e-9 m=1 nf=1 
m10 net67 net5 vdd vdd pch_lvt l=60e-9 w=260e-9 m=1 nf=1 
mi43 net72 net81 vdd vdd pch_lvt l=60e-9 w=150e-9 m=1 nf=1 
mi6 net25 d net104 vdd pch_lvt l=60e-9 w=460e-9 m=1 nf=1 
m11 qn net33 vdd vdd pch_lvt l=60e-9 w=520e-9 m=1 nf=1 
m12 net036 net95 vdd vdd pch_lvt l=60e-9 w=520e-9 m=1 nf=1 
mi44 net72 cdn vdd vdd pch_lvt l=60e-9 w=150e-9 m=1 nf=1 
mi17 net33 net67 net79 vdd pch_lvt l=60e-9 w=150e-9 m=1 nf=1 
m13 net81 net25 vdd vdd pch_lvt l=60e-9 w=220e-9 m=1 nf=1 
m14 net95 net79 vdd vdd pch_lvt l=60e-9 w=365e-9 m=1 nf=1 
mi16 net81 net5 net79 vdd pch_lvt l=60e-9 w=245e-9 m=1 nf=1 
mi45 net25 net5 net72 vdd pch_lvt l=60e-9 w=150e-9 m=1 nf=1 
mi7 net104 net67 vdd vdd pch_lvt l=60e-9 w=460e-9 m=1 nf=1 
m15 net95 cdn vdd vdd pch_lvt l=60e-9 w=365e-9 m=1 nf=1 
.ends DFCND1LVT_schematic
** End of subcircuit definition.

** Library name: TempSensorLayout
** Cell name: CK_DividerBy8
** View name: schematic
.subckt CK_DividerBy8 ckin compen inphase outphase preset qphase vdd vss
xi14 preset net039 vdd vss INVD2LVT
xi51<18> vdd vss DCAP8LVT
xi51<17> vdd vss DCAP8LVT
xi51<16> vdd vss DCAP8LVT
xi51<15> vdd vss DCAP8LVT
xi51<14> vdd vss DCAP8LVT
xi51<13> vdd vss DCAP8LVT
xi51<12> vdd vss DCAP8LVT
xi51<11> vdd vss DCAP8LVT
xi51<10> vdd vss DCAP8LVT
xi51<9> vdd vss DCAP8LVT
xi51<8> vdd vss DCAP8LVT
xi51<7> vdd vss DCAP8LVT
xi51<6> vdd vss DCAP8LVT
xi51<5> vdd vss DCAP8LVT
xi51<4> vdd vss DCAP8LVT
xi51<3> vdd vss DCAP8LVT
xi51<2> vdd vss DCAP8LVT
xi51<1> vdd vss DCAP8LVT
xi51<0> vdd vss DCAP8LVT
xi50 preset net048 vdd vss INVD1LVT
xi6 ckin net45 vdd vss CKBD1LVT
xi139 net048 net015 compen vdd vss AN2D1LVT
xi5 net45 net49 vdd vss CKND1LVT
xi8 net48 net011 net039 net015 net48 vdd vss DFCND1LVT
xi7 net50 net018 net039 net076 net50 vdd vss DFCND1LVT
xi43 net076 net059 vdd vss CKND3LVT
xi39 net48 net063 vdd vss CKND3LVT
xi37 net015 net064 vdd vss CKND3LVT
xi42 net059 qphase vdd vss CKND8LVT
xi38 net063 outphase vdd vss CKND8LVT
xi20 net064 inphase vdd vss CKND8LVT
xi29 net039 net49 net016 net016 vdd vss DFCND1LVT_schematic
xi28 net039 net016 net018 net018 vdd vss DFCND1LVT_schematic
xi27 net039 net45 net040 net040 vdd vss DFCND1LVT_schematic
xi26 net039 net040 net011 net011 vdd vss DFCND1LVT_schematic
.ends CK_DividerBy8
** End of subcircuit definition.

** Library name: tcbn65lplvt
** Cell name: DFNCND1LVT
** View name: schematic
.subckt DFNCND1LVT d cpn cdn q qn vdd vss
m0 net49 cdn vdd vdd pch_lvt l=60e-9 w=375e-9 m=1 nf=1 
mi43 net53 net9 vdd vdd pch_lvt l=60e-9 w=150e-9 m=1 nf=1 
m1 net49 net20 vdd vdd pch_lvt l=60e-9 w=375e-9 m=1 nf=1 
mi6 net5 d net1 vdd pch_lvt l=60e-9 w=450e-9 m=1 nf=1 
m2 net11 net67 vdd vdd pch_lvt l=60e-9 w=260e-9 m=1 nf=1 
m3 net37 net49 vdd vdd pch_lvt l=60e-9 w=260e-9 m=1 nf=1 
m4 qn net37 vdd vdd pch_lvt l=60e-9 w=520e-9 m=1 nf=1 
m5 net67 cpn vdd vdd pch_lvt l=60e-9 w=260e-9 m=1 nf=1 
m6 q net49 vdd vdd pch_lvt l=60e-9 w=520e-9 m=1 nf=1 
mi44 net53 cdn vdd vdd pch_lvt l=60e-9 w=150e-9 m=1 nf=1 
mi17 net37 net67 net20 vdd pch_lvt l=60e-9 w=150e-9 m=1 nf=1 
m7 net9 net5 vdd vdd pch_lvt l=60e-9 w=305e-9 m=1 nf=1 
mi16 net9 net11 net20 vdd pch_lvt l=60e-9 w=270e-9 m=1 nf=1 
mi45 net5 net11 net53 vdd pch_lvt l=60e-9 w=150e-9 m=1 nf=1 
mi7 net1 net67 vdd vdd pch_lvt l=60e-9 w=450e-9 m=1 nf=1 
m8 qn net37 vss vss nch_lvt l=60e-9 w=390e-9 m=1 nf=1 
m9 net37 net49 vss vss nch_lvt l=60e-9 w=195e-9 m=1 nf=1 
mi4 net109 net11 vss vss nch_lvt l=60e-9 w=160e-9 m=1 nf=1 
mi18 net37 net11 net20 vss nch_lvt l=60e-9 w=150e-9 m=1 nf=1 
m10 net49 net20 net104 vss nch_lvt l=60e-9 w=390e-9 m=1 nf=1 
m11 net104 cdn vss vss nch_lvt l=60e-9 w=390e-9 m=1 nf=1 
m12 net9 net5 vss vss nch_lvt l=60e-9 w=190e-9 m=1 nf=1 
mi15 net9 net67 net20 vss nch_lvt l=60e-9 w=170e-9 m=1 nf=1 
mi5 net5 d net109 vss nch_lvt l=60e-9 w=160e-9 m=1 nf=1 
m13 net67 cpn vss vss nch_lvt l=60e-9 w=195e-9 m=1 nf=1 
mi49 net77 cdn vss vss nch_lvt l=60e-9 w=150e-9 m=1 nf=1 
mi48 net64 net9 net77 vss nch_lvt l=60e-9 w=150e-9 m=1 nf=1 
m14 q net49 vss vss nch_lvt l=60e-9 w=390e-9 m=1 nf=1 
m15 net11 net67 vss vss nch_lvt l=60e-9 w=195e-9 m=1 nf=1 
mi47 net5 net67 net64 vss nch_lvt l=60e-9 w=150e-9 m=1 nf=1 
.ends DFNCND1LVT
** End of subcircuit definition.

** Library name: tcbn65lplvt
** Cell name: TIEHLVT
** View name: schematic
.subckt TIEHLVT z vdd vss
m_u2 net7 net7 vss vss nch_lvt l=60e-9 w=410e-9 m=1 nf=1 
m_u1 z net7 vdd vdd pch_lvt l=60e-9 w=540e-9 m=1 nf=1 
.ends TIEHLVT
** End of subcircuit definition.

** Library name: tcbn65lplvt
** Cell name: DFCNQD1LVT
** View name: schematic
.subckt DFCNQD1LVT d cp cdn q vdd vss
mi4 net53 net5 vss vss nch_lvt l=60e-9 w=350e-9 m=1 nf=1 
m0 net81 net51 net9 vss nch_lvt l=60e-9 w=390e-9 m=1 nf=1 
m1 net37 net97 vss vss nch_lvt l=60e-9 w=160e-9 m=1 nf=1 
mi29 net51 net5 net44 vss nch_lvt l=60e-9 w=150e-9 m=1 nf=1 
mi15 net37 net63 net51 vss nch_lvt l=60e-9 w=160e-9 m=1 nf=1 
m2 net63 net5 vss vss nch_lvt l=60e-9 w=195e-9 m=1 nf=1 
mi5 net97 d net53 vss nch_lvt l=60e-9 w=350e-9 m=1 nf=1 
mi49 net20 cdn vss vss nch_lvt l=60e-9 w=150e-9 m=1 nf=1 
mi26 net44 net81 vss vss nch_lvt l=60e-9 w=150e-9 m=1 nf=1 
mi48 net17 net37 net20 vss nch_lvt l=60e-9 w=150e-9 m=1 nf=1 
m3 q net81 vss vss nch_lvt l=60e-9 w=390e-9 m=1 nf=1 
m4 net9 cdn vss vss nch_lvt l=60e-9 w=390e-9 m=1 nf=1 
m5 net5 cp vss vss nch_lvt l=60e-9 w=195e-9 m=1 nf=1 
mi47 net97 net63 net17 vss nch_lvt l=60e-9 w=150e-9 m=1 nf=1 
m6 net5 cp vdd vdd pch_lvt l=60e-9 w=260e-9 m=1 nf=1 
m7 net63 net5 vdd vdd pch_lvt l=60e-9 w=260e-9 m=1 nf=1 
mi43 net101 net37 vdd vdd pch_lvt l=60e-9 w=150e-9 m=1 nf=1 
mi6 net97 d net100 vdd pch_lvt l=60e-9 w=460e-9 m=1 nf=1 
m8 q net81 vdd vdd pch_lvt l=60e-9 w=520e-9 m=1 nf=1 
mi44 net101 cdn vdd vdd pch_lvt l=60e-9 w=150e-9 m=1 nf=1 
m9 net37 net97 vdd vdd pch_lvt l=60e-9 w=220e-9 m=1 nf=1 
m10 net81 net51 vdd vdd pch_lvt l=60e-9 w=400e-9 m=1 nf=1 
mi16 net37 net5 net51 vdd pch_lvt l=60e-9 w=245e-9 m=1 nf=1 
mi24 net72 net81 vdd vdd pch_lvt l=60e-9 w=150e-9 m=1 nf=1 
mi28 net51 net63 net72 vdd pch_lvt l=60e-9 w=150e-9 m=1 nf=1 
mi45 net97 net5 net101 vdd pch_lvt l=60e-9 w=150e-9 m=1 nf=1 
mi7 net100 net63 vdd vdd pch_lvt l=60e-9 w=460e-9 m=1 nf=1 
m11 net81 cdn vdd vdd pch_lvt l=60e-9 w=400e-9 m=1 nf=1 
.ends DFCNQD1LVT
** End of subcircuit definition.

** Library name: tcbn65lplvt
** Cell name: CKND4LVT
** View name: schematic
.subckt CKND4LVT i zn vdd vss
m_u1_0 zn i vdd vdd pch_lvt l=60e-9 w=520e-9 m=1 nf=1 
m_u1_3 zn i vdd vdd pch_lvt l=60e-9 w=520e-9 m=1 nf=1 
m_u1_2 zn i vdd vdd pch_lvt l=60e-9 w=520e-9 m=1 nf=1 
m_u1_1 zn i vdd vdd pch_lvt l=60e-9 w=520e-9 m=1 nf=1 
m_u2_1 zn i vss vss nch_lvt l=60e-9 w=310e-9 m=1 nf=1 
m_u2_3 zn i vss vss nch_lvt l=60e-9 w=310e-9 m=1 nf=1 
m_u2_0 zn i vss vss nch_lvt l=60e-9 w=310e-9 m=1 nf=1 
m_u2_2 zn i vss vss nch_lvt l=60e-9 w=310e-9 m=1 nf=1 
.ends CKND4LVT
** End of subcircuit definition.

** Library name: tcbn65lplvt
** Cell name: NR2D1LVT
** View name: schematic
.subckt NR2D1LVT a1 a2 zn vdd vss
m0 zn a2 vss vss nch_lvt l=60e-9 w=390e-9 m=1 nf=1 
m1 zn a1 vss vss nch_lvt l=60e-9 w=390e-9 m=1 nf=1 
m2 net13 a2 vdd vdd pch_lvt l=60e-9 w=520e-9 m=1 nf=1 
m3 zn a1 net13 vdd pch_lvt l=60e-9 w=520e-9 m=1 nf=1 
.ends NR2D1LVT
** End of subcircuit definition.

** Library name: tcbn65lplvt
** Cell name: OR2D1LVT
** View name: schematic
.subckt OR2D1LVT a1 a2 z vdd vss
m0 z net5 vss vss nch_lvt l=60e-9 w=390e-9 m=1 nf=1 
m1 net5 a1 vss vss nch_lvt l=60e-9 w=195e-9 m=1 nf=1 
m2 net5 a2 vss vss nch_lvt l=60e-9 w=195e-9 m=1 nf=1 
m3 z net5 vdd vdd pch_lvt l=60e-9 w=520e-9 m=1 nf=1 
m4 net17 a2 vdd vdd pch_lvt l=60e-9 w=520e-9 m=1 nf=1 
m5 net5 a1 net17 vdd pch_lvt l=60e-9 w=520e-9 m=1 nf=1 
.ends OR2D1LVT
** End of subcircuit definition.

** Library name: TempSensorLayout
** Cell name: DFNCND1LVT
** View name: schematic
.subckt DFNCND1LVT_schematic cdn cpn d q vdd vss
m0 net49 cdn vdd vdd pch_lvt l=60e-9 w=375e-9 m=1 nf=1 
mi43 net53 net9 vdd vdd pch_lvt l=60e-9 w=150e-9 m=1 nf=1 
m1 net49 net20 vdd vdd pch_lvt l=60e-9 w=375e-9 m=1 nf=1 
mi6 net5 d net1 vdd pch_lvt l=60e-9 w=450e-9 m=1 nf=1 
m2 net11 net67 vdd vdd pch_lvt l=60e-9 w=260e-9 m=1 nf=1 
m3 net37 net49 vdd vdd pch_lvt l=60e-9 w=260e-9 m=1 nf=1 
m4 net040 net37 vdd vdd pch_lvt l=60e-9 w=520e-9 m=1 nf=1 
m5 net67 cpn vdd vdd pch_lvt l=60e-9 w=260e-9 m=1 nf=1 
m6 q net49 vdd vdd pch_lvt l=60e-9 w=520e-9 m=1 nf=1 
mi44 net53 cdn vdd vdd pch_lvt l=60e-9 w=150e-9 m=1 nf=1 
mi17 net37 net67 net20 vdd pch_lvt l=60e-9 w=150e-9 m=1 nf=1 
m7 net9 net5 vdd vdd pch_lvt l=60e-9 w=305e-9 m=1 nf=1 
mi16 net9 net11 net20 vdd pch_lvt l=60e-9 w=270e-9 m=1 nf=1 
mi45 net5 net11 net53 vdd pch_lvt l=60e-9 w=150e-9 m=1 nf=1 
mi7 net1 net67 vdd vdd pch_lvt l=60e-9 w=450e-9 m=1 nf=1 
m8 net040 net37 vss vss nch_lvt l=60e-9 w=390e-9 m=1 nf=1 
m9 net37 net49 vss vss nch_lvt l=60e-9 w=195e-9 m=1 nf=1 
mi4 net109 net11 vss vss nch_lvt l=60e-9 w=160e-9 m=1 nf=1 
mi18 net37 net11 net20 vss nch_lvt l=60e-9 w=150e-9 m=1 nf=1 
m10 net49 net20 net104 vss nch_lvt l=60e-9 w=390e-9 m=1 nf=1 
m11 net104 cdn vss vss nch_lvt l=60e-9 w=390e-9 m=1 nf=1 
m12 net9 net5 vss vss nch_lvt l=60e-9 w=190e-9 m=1 nf=1 
mi15 net9 net67 net20 vss nch_lvt l=60e-9 w=170e-9 m=1 nf=1 
mi5 net5 d net109 vss nch_lvt l=60e-9 w=160e-9 m=1 nf=1 
m13 net67 cpn vss vss nch_lvt l=60e-9 w=195e-9 m=1 nf=1 
mi49 net77 cdn vss vss nch_lvt l=60e-9 w=150e-9 m=1 nf=1 
mi48 net64 net9 net77 vss nch_lvt l=60e-9 w=150e-9 m=1 nf=1 
m14 q net49 vss vss nch_lvt l=60e-9 w=390e-9 m=1 nf=1 
m15 net11 net67 vss vss nch_lvt l=60e-9 w=195e-9 m=1 nf=1 
mi47 net5 net67 net64 vss nch_lvt l=60e-9 w=150e-9 m=1 nf=1 
.ends DFNCND1LVT_schematic
** End of subcircuit definition.

** Library name: TempSensorLayout