** Generated for: hspiceD
** Generated on: Jan  5 03:00:27 2020
** Design library name: TempSensorLayout_PostLayout
** Design cell name: MDLL_TOP
** Design view name: schematic


.TEMP 25.0
.OPTION
+    ARTIST=2
+    INGOLD=2
+    PARHIER=LOCAL
+    PSF=2
.LIB "/home/lab.apps/vlsiapps/kits/tsmc/N65LP/models/hspice/toplevel.l" tt_lib

** Library name: tcbn65lp
** Cell name: INVD0
** View name: schematic
.subckt INVD0 i zn vdd vss
m0 zn i vss vss nch l=60e-9 w=195e-9 m=1 nf=1 
m1 zn i vdd vdd pch l=60e-9 w=260e-9 m=1 nf=1 
.ends INVD0
** End of subcircuit definition.

** Library name: tcbn65lp
** Cell name: AN3D2
** View name: schematic
.subckt AN3D2 a1 a2 a3 z vdd vss
m0 z net5 vss vss nch l=60e-9 w=390e-9 m=1 nf=1 
m1 net13 a3 vss vss nch l=60e-9 w=390e-9 m=1 nf=1 
m2 net9 a2 net13 vss nch l=60e-9 w=390e-9 m=1 nf=1 
m3 net5 a1 net9 vss nch l=60e-9 w=390e-9 m=1 nf=1 
m4 z net5 vss vss nch l=60e-9 w=390e-9 m=1 nf=1 
m5 net5 a3 vdd vdd pch l=60e-9 w=520e-9 m=1 nf=1 
m6 z net5 vdd vdd pch l=60e-9 w=520e-9 m=1 nf=1 
m7 z net5 vdd vdd pch l=60e-9 w=520e-9 m=1 nf=1 
m8 net5 a1 vdd vdd pch l=60e-9 w=520e-9 m=1 nf=1 
m9 net5 a2 vdd vdd pch l=60e-9 w=520e-9 m=1 nf=1 
.ends AN3D2
** End of subcircuit definition.

** Library name: tcbn65lp
** Cell name: INVD1
** View name: schematic
.subckt INVD1 i zn vdd vss
m0 zn i vss vss nch l=60e-9 w=390e-9 m=1 nf=1 
m1 zn i vdd vdd pch l=60e-9 w=520e-9 m=1 nf=1 
.ends INVD1
** End of subcircuit definition.

** Library name: tcbn65lp
** Cell name: NR2D0
** View name: schematic
.subckt NR2D0 a1 a2 zn vdd vss
m0 zn a2 vss vss nch l=60e-9 w=195e-9 m=1 nf=1 
m1 zn a1 vss vss nch l=60e-9 w=195e-9 m=1 nf=1 
m2 net13 a2 vdd vdd pch l=60e-9 w=260e-9 m=1 nf=1 
m3 zn a1 net13 vdd pch l=60e-9 w=260e-9 m=1 nf=1 
.ends NR2D0
** End of subcircuit definition.

** Library name: tcbn65lp
** Cell name: DFND1
** View name: schematic
.subckt DFND1 d cpn q qn vdd vss
m0 net63 net100 vss vss nch l=60e-9 w=390e-9 m=1 nf=1 
m1 qn net97 vss vss nch l=60e-9 w=390e-9 m=1 nf=1 
mi4 net24 net67 vss vss nch l=60e-9 w=200e-9 m=1 nf=1 
mi55 net97 net67 net100 vss nch l=60e-9 w=150e-9 m=1 nf=1 
m2 net11 net1 vss vss nch l=60e-9 w=190e-9 m=1 nf=1 
mi50 net11 net95 net100 vss nch l=60e-9 w=190e-9 m=1 nf=1 
m3 net67 net95 vss vss nch l=60e-9 w=195e-9 m=1 nf=1 
mi5 net1 d net24 vss nch l=60e-9 w=200e-9 m=1 nf=1 
m4 net95 cpn vss vss nch l=60e-9 w=195e-9 m=1 nf=1 
m5 net97 net63 vss vss nch l=60e-9 w=195e-9 m=1 nf=1 
mi48 net9 net11 vss vss nch l=60e-9 w=150e-9 m=1 nf=1 
m6 q net63 vss vss nch l=60e-9 w=390e-9 m=1 nf=1 
mi47 net1 net95 net9 vss nch l=60e-9 w=150e-9 m=1 nf=1 
m7 net63 net100 vdd vdd pch l=60e-9 w=500e-9 m=1 nf=1 
mi54 net97 net95 net100 vdd pch l=60e-9 w=150e-9 m=1 nf=1 
m8 net67 net95 vdd vdd pch l=60e-9 w=260e-9 m=1 nf=1 
mi43 net60 net11 vdd vdd pch l=60e-9 w=150e-9 m=1 nf=1 
mi6 net1 d net53 vdd pch l=60e-9 w=430e-9 m=1 nf=1 
m9 qn net97 vdd vdd pch l=60e-9 w=520e-9 m=1 nf=1 
m10 net95 cpn vdd vdd pch l=60e-9 w=260e-9 m=1 nf=1 
m11 q net63 vdd vdd pch l=60e-9 w=520e-9 m=1 nf=1 
m12 net11 net1 vdd vdd pch l=60e-9 w=270e-9 m=1 nf=1 
mi52 net11 net67 net100 vdd pch l=60e-9 w=270e-9 m=1 nf=1 
m13 net97 net63 vdd vdd pch l=60e-9 w=260e-9 m=1 nf=1 
mi45 net1 net67 net60 vdd pch l=60e-9 w=150e-9 m=1 nf=1 
mi7 net53 net95 vdd vdd pch l=60e-9 w=430e-9 m=1 nf=1 
.ends DFND1
** End of subcircuit definition.

** Library name: tcbn65lp
** Cell name: INVD8
** View name: schematic
.subckt INVD8 i zn vdd vss
m0 zn i vss vss nch l=60e-9 w=390e-9 m=1 nf=1 
m1 zn i vss vss nch l=60e-9 w=390e-9 m=1 nf=1 
m2 zn i vss vss nch l=60e-9 w=390e-9 m=1 nf=1 
m3 zn i vss vss nch l=60e-9 w=390e-9 m=1 nf=1 
m4 zn i vss vss nch l=60e-9 w=390e-9 m=1 nf=1 
m5 zn i vss vss nch l=60e-9 w=390e-9 m=1 nf=1 
m6 zn i vss vss nch l=60e-9 w=390e-9 m=1 nf=1 
m7 zn i vss vss nch l=60e-9 w=390e-9 m=1 nf=1 
m8 zn i vdd vdd pch l=60e-9 w=520e-9 m=1 nf=1 
m9 zn i vdd vdd pch l=60e-9 w=520e-9 m=1 nf=1 
m10 zn i vdd vdd pch l=60e-9 w=520e-9 m=1 nf=1 
m11 zn i vdd vdd pch l=60e-9 w=520e-9 m=1 nf=1 
m12 zn i vdd vdd pch l=60e-9 w=520e-9 m=1 nf=1 
m13 zn i vdd vdd pch l=60e-9 w=520e-9 m=1 nf=1 
m14 zn i vdd vdd pch l=60e-9 w=520e-9 m=1 nf=1 
m15 zn i vdd vdd pch l=60e-9 w=520e-9 m=1 nf=1 
.ends INVD8
** End of subcircuit definition.

** Library name: tcbn65lp
** Cell name: TIEL
** View name: schematic
.subckt TIEL zn vdd vss
m_u2 zn net5 vss vss nch l=60e-9 w=410e-9 m=1 nf=1 
m_u1 net5 net5 vdd vdd pch l=60e-9 w=540e-9 m=1 nf=1 
.ends TIEL
** End of subcircuit definition.

** Library name: tcbn65lp
** Cell name: DFSNQD1
** View name: schematic
.subckt DFSNQD1 d cp sdn q vdd vss
m0 net44 net25 vss vss nch l=60e-9 w=390e-9 m=1 nf=1 
m1 net11 cp vss vss nch l=60e-9 w=195e-9 m=1 nf=1 
m2 q net13 vss vss nch l=60e-9 w=390e-9 m=1 nf=1 
m3 net7 sdn net44 vss nch l=60e-9 w=390e-9 m=1 nf=1 
m4 net37 net13 vss vss nch l=60e-9 w=150e-9 m=1 nf=1 
m5 net33 sdn net37 vss nch l=60e-9 w=150e-9 m=1 nf=1 
mi20 net7 net83 net63 vss nch l=60e-9 w=240e-9 m=1 nf=1 
mi23 net25 net83 net5 vss nch l=60e-9 w=150e-9 m=1 nf=1 
mi22 net33 net11 net63 vss nch l=60e-9 w=150e-9 m=1 nf=1 
mi21 net25 d net20 vss nch l=60e-9 w=390e-9 m=1 nf=1 
m6 net13 net63 vss vss nch l=60e-9 w=390e-9 m=1 nf=1 
mi19 net20 net11 vss vss nch l=60e-9 w=310e-9 m=1 nf=1 
mi24 net5 net7 vss vss nch l=60e-9 w=150e-9 m=1 nf=1 
m7 net83 net11 vss vss nch l=60e-9 w=195e-9 m=1 nf=1 
m8 net11 cp vdd vdd pch l=60e-9 w=260e-9 m=1 nf=1 
mi33 net33 net83 net63 vdd pch l=60e-9 w=150e-9 m=1 nf=1 
m9 net7 sdn vdd vdd pch l=60e-9 w=520e-9 m=1 nf=1 
m10 q net13 vdd vdd pch l=60e-9 w=520e-9 m=1 nf=1 
mi34 net25 net11 net96 vdd pch l=60e-9 w=150e-9 m=1 nf=1 
mi30 net7 net11 net63 vdd pch l=60e-9 w=320e-9 m=1 nf=1 
m11 net7 net25 vdd vdd pch l=60e-9 w=520e-9 m=1 nf=1 
mi28 net81 net83 vdd vdd pch l=60e-9 w=520e-9 m=1 nf=1 
m12 net83 net11 vdd vdd pch l=60e-9 w=260e-9 m=1 nf=1 
m13 net33 net13 vdd vdd pch l=60e-9 w=150e-9 m=1 nf=1 
mi35 net96 net7 vdd vdd pch l=60e-9 w=150e-9 m=1 nf=1 
m14 net33 sdn vdd vdd pch l=60e-9 w=150e-9 m=1 nf=1 
m15 net13 net63 vdd vdd pch l=60e-9 w=520e-9 m=1 nf=1 
mi26 net25 d net81 vdd pch l=60e-9 w=520e-9 m=1 nf=1 
.ends DFSNQD1
** End of subcircuit definition.

** Library name: tcbn65lp
** Cell name: ND2D0
** View name: schematic
.subckt ND2D0 a1 a2 zn vdd vss
m0 zn a1 net1 vss nch l=60e-9 w=195e-9 m=1 nf=1 
m1 net1 a2 vss vss nch l=60e-9 w=195e-9 m=1 nf=1 
m2 zn a1 vdd vdd pch l=60e-9 w=260e-9 m=1 nf=1 
m3 zn a2 vdd vdd pch l=60e-9 w=260e-9 m=1 nf=1 
.ends ND2D0
** End of subcircuit definition.

** Library name: tcbn65lp
** Cell name: DEL015
** View name: schematic
.subckt DEL015 i z vdd vss
m0 z net13 vss vss nch l=60e-9 w=390e-9 m=1 nf=1 
mi29 net25 net9 net28 vss nch l=60e-9 w=390e-9 m=1 nf=1 
mi30 net28 net9 vss vss nch l=60e-9 w=390e-9 m=1 nf=1 
mi37 net17 net5 vss vss nch l=60e-9 w=390e-9 m=1 nf=1 
mi28 net13 net9 net25 vss nch l=60e-9 w=390e-9 m=1 nf=1 
mi35 net9 net5 net44 vss nch l=60e-9 w=390e-9 m=1 nf=1 
m1 net5 i vss vss nch l=60e-9 w=390e-9 m=1 nf=1 
mi36 net44 net5 net17 vss nch l=60e-9 w=390e-9 m=1 nf=1 
m2 z net13 vdd vdd pch l=60e-9 w=520e-9 m=1 nf=1 
mi20 net57 net9 vdd vdd pch l=60e-9 w=520e-9 m=1 nf=1 
mi23 net13 net9 net25 vdd pch l=60e-9 w=520e-9 m=1 nf=1 
m3 net5 i vdd vdd pch l=60e-9 w=520e-9 m=1 nf=1 
mi21 net25 net9 net57 vdd pch l=60e-9 w=520e-9 m=1 nf=1 
mi32 net9 net5 net44 vdd pch l=60e-9 w=520e-9 m=1 nf=1 
mi31 net44 net5 net33 vdd pch l=60e-9 w=520e-9 m=1 nf=1 
mi7 net33 net5 vdd vdd pch l=60e-9 w=520e-9 m=1 nf=1 
.ends DEL015
** End of subcircuit definition.

** Library name: tcbn65lp
** Cell name: DFSND1
** View name: schematic
.subckt DFSND1 d cp sdn q qn vdd vss
m0 net57 net61 vss vss nch l=60e-9 w=390e-9 m=1 nf=1 
m1 net11 cp vss vss nch l=60e-9 w=195e-9 m=1 nf=1 
m2 q net79 vss vss nch l=60e-9 w=390e-9 m=1 nf=1 
m3 net97 sdn net57 vss nch l=60e-9 w=390e-9 m=1 nf=1 
m4 net40 net79 vss vss nch l=60e-9 w=195e-9 m=1 nf=1 
m5 net25 sdn net40 vss nch l=60e-9 w=195e-9 m=1 nf=1 
mi20 net97 net81 net67 vss nch l=60e-9 w=235e-9 m=1 nf=1 
mi23 net61 net81 net5 vss nch l=60e-9 w=150e-9 m=1 nf=1 
mi22 net25 net11 net67 vss nch l=60e-9 w=150e-9 m=1 nf=1 
mi21 net61 d net9 vss nch l=60e-9 w=390e-9 m=1 nf=1 
m6 net79 net67 vss vss nch l=60e-9 w=390e-9 m=1 nf=1 
m7 qn net25 vss vss nch l=60e-9 w=390e-9 m=1 nf=1 
mi19 net9 net11 vss vss nch l=60e-9 w=310e-9 m=1 nf=1 
mi24 net5 net97 vss vss nch l=60e-9 w=150e-9 m=1 nf=1 
m8 net81 net11 vss vss nch l=60e-9 w=195e-9 m=1 nf=1 
m9 net11 cp vdd vdd pch l=60e-9 w=260e-9 m=1 nf=1 
mi33 net25 net81 net67 vdd pch l=60e-9 w=150e-9 m=1 nf=1 
m10 net97 sdn vdd vdd pch l=60e-9 w=520e-9 m=1 nf=1 
m11 q net79 vdd vdd pch l=60e-9 w=520e-9 m=1 nf=1 
mi34 net61 net11 net104 vdd pch l=60e-9 w=150e-9 m=1 nf=1 
mi30 net97 net11 net67 vdd pch l=60e-9 w=320e-9 m=1 nf=1 
m12 qn net25 vdd vdd pch l=60e-9 w=520e-9 m=1 nf=1 
m13 net97 net61 vdd vdd pch l=60e-9 w=520e-9 m=1 nf=1 
mi28 net85 net81 vdd vdd pch l=60e-9 w=520e-9 m=1 nf=1 
m14 net81 net11 vdd vdd pch l=60e-9 w=260e-9 m=1 nf=1 
m15 net25 net79 vdd vdd pch l=60e-9 w=260e-9 m=1 nf=1 
mi35 net104 net97 vdd vdd pch l=60e-9 w=150e-9 m=1 nf=1 
m16 net25 sdn vdd vdd pch l=60e-9 w=260e-9 m=1 nf=1 
m17 net79 net67 vdd vdd pch l=60e-9 w=520e-9 m=1 nf=1 
mi26 net61 d net85 vdd pch l=60e-9 w=520e-9 m=1 nf=1 
.ends DFSND1
** End of subcircuit definition.

** Library name: tcbn65lp
** Cell name: AN2D0
** View name: schematic
.subckt AN2D0 a1 a2 z vdd vss
m0 z net5 vdd vdd pch l=60e-9 w=260e-9 m=1 nf=1 
m1 net5 a1 vdd vdd pch l=60e-9 w=260e-9 m=1 nf=1 
m2 net5 a2 vdd vdd pch l=60e-9 w=260e-9 m=1 nf=1 
m3 z net5 vss vss nch l=60e-9 w=195e-9 m=1 nf=1 
m4 net17 a2 vss vss nch l=60e-9 w=195e-9 m=1 nf=1 
m5 net5 a1 net17 vss nch l=60e-9 w=195e-9 m=1 nf=1 
.ends AN2D0
** End of subcircuit definition.

** Library name: tcbn65lp
** Cell name: DFCND1
** View name: schematic
.subckt DFCND1 d cp cdn q qn vdd vss
m0 qn net33 vss vss nch l=60e-9 w=390e-9 m=1 nf=1 
mi4 net53 net5 vss vss nch l=60e-9 w=350e-9 m=1 nf=1 
mi18 net33 net5 net79 vss nch l=60e-9 w=150e-9 m=1 nf=1 
m1 net95 net79 net9 vss nch l=60e-9 w=390e-9 m=1 nf=1 
m2 net81 net25 vss vss nch l=60e-9 w=190e-9 m=1 nf=1 
mi15 net81 net67 net79 vss nch l=60e-9 w=190e-9 m=1 nf=1 
m3 net33 net95 vss vss nch l=60e-9 w=195e-9 m=1 nf=1 
m4 net67 net5 vss vss nch l=60e-9 w=195e-9 m=1 nf=1 
mi5 net25 d net53 vss nch l=60e-9 w=350e-9 m=1 nf=1 
mi49 net20 cdn vss vss nch l=60e-9 w=150e-9 m=1 nf=1 
mi48 net17 net81 net20 vss nch l=60e-9 w=150e-9 m=1 nf=1 
m5 q net95 vss vss nch l=60e-9 w=390e-9 m=1 nf=1 
m6 net9 cdn vss vss nch l=60e-9 w=390e-9 m=1 nf=1 
m7 net5 cp vss vss nch l=60e-9 w=195e-9 m=1 nf=1 
mi47 net25 net67 net17 vss nch l=60e-9 w=150e-9 m=1 nf=1 
m8 net33 net95 vdd vdd pch l=60e-9 w=260e-9 m=1 nf=1 
m9 net5 cp vdd vdd pch l=60e-9 w=260e-9 m=1 nf=1 
m10 net67 net5 vdd vdd pch l=60e-9 w=260e-9 m=1 nf=1 
mi43 net72 net81 vdd vdd pch l=60e-9 w=150e-9 m=1 nf=1 
mi6 net25 d net104 vdd pch l=60e-9 w=460e-9 m=1 nf=1 
m11 qn net33 vdd vdd pch l=60e-9 w=520e-9 m=1 nf=1 
m12 q net95 vdd vdd pch l=60e-9 w=520e-9 m=1 nf=1 
mi44 net72 cdn vdd vdd pch l=60e-9 w=150e-9 m=1 nf=1 
mi17 net33 net67 net79 vdd pch l=60e-9 w=150e-9 m=1 nf=1 
m13 net81 net25 vdd vdd pch l=60e-9 w=220e-9 m=1 nf=1 
m14 net95 net79 vdd vdd pch l=60e-9 w=365e-9 m=1 nf=1 
mi16 net81 net5 net79 vdd pch l=60e-9 w=245e-9 m=1 nf=1 
mi45 net25 net5 net72 vdd pch l=60e-9 w=150e-9 m=1 nf=1 
mi7 net104 net67 vdd vdd pch l=60e-9 w=460e-9 m=1 nf=1 
m15 net95 cdn vdd vdd pch l=60e-9 w=365e-9 m=1 nf=1 
.ends DFCND1
** End of subcircuit definition.

** Library name: tcbn65lp
** Cell name: AN2D2
** View name: schematic
.subckt AN2D2 a1 a2 z vdd vss
m0 z net9 vdd vdd pch l=60e-9 w=520e-9 m=1 nf=1 
m1 net9 a2 vdd vdd pch l=60e-9 w=520e-9 m=1 nf=1 
m2 z net9 vdd vdd pch l=60e-9 w=520e-9 m=1 nf=1 
m3 net9 a1 vdd vdd pch l=60e-9 w=520e-9 m=1 nf=1 
m4 net29 a2 vss vss nch l=60e-9 w=390e-9 m=1 nf=1 
m5 net9 a1 net29 vss nch l=60e-9 w=390e-9 m=1 nf=1 
m6 z net9 vss vss nch l=60e-9 w=390e-9 m=1 nf=1 
m7 z net9 vss vss nch l=60e-9 w=390e-9 m=1 nf=1 
.ends AN2D2
** End of subcircuit definition.

** Library name: tcbn65lp
** Cell name: CKBD4
** View name: schematic
.subckt CKBD4 i z vdd vss
m_u15_1 net11 i vss vss nch l=60e-9 w=310e-9 m=1 nf=1 
mu23_1 z net11 vss vss nch l=60e-9 w=310e-9 m=1 nf=1 
mu23_3 z net11 vss vss nch l=60e-9 w=310e-9 m=1 nf=1 
mu23_0 z net11 vss vss nch l=60e-9 w=310e-9 m=1 nf=1 
mu23_2 z net11 vss vss nch l=60e-9 w=310e-9 m=1 nf=1 
m_u15_0 net11 i vss vss nch l=60e-9 w=310e-9 m=1 nf=1 
mu21_0 z net11 vdd vdd pch l=60e-9 w=520e-9 m=1 nf=1 
mu21_1 z net11 vdd vdd pch l=60e-9 w=520e-9 m=1 nf=1 
m_u3_0 net11 i vdd vdd pch l=60e-9 w=520e-9 m=1 nf=1 
mu21_3 z net11 vdd vdd pch l=60e-9 w=520e-9 m=1 nf=1 
m_u3_1 net11 i vdd vdd pch l=60e-9 w=520e-9 m=1 nf=1 
mu21_2 z net11 vdd vdd pch l=60e-9 w=520e-9 m=1 nf=1 
.ends CKBD4
** End of subcircuit definition.

** Library name: tcbn65lp
** Cell name: ND3D3
** View name: schematic
.subckt ND3D3 a1 a2 a3 zn vdd vss
m0 zn a3 vdd vdd pch l=60e-9 w=520e-9 m=1 nf=1 
m1 zn a1 vdd vdd pch l=60e-9 w=520e-9 m=1 nf=1 
m2 zn a3 vdd vdd pch l=60e-9 w=520e-9 m=1 nf=1 
m3 zn a2 vdd vdd pch l=60e-9 w=520e-9 m=1 nf=1 
m4 zn a2 vdd vdd pch l=60e-9 w=520e-9 m=1 nf=1 
m5 zn a3 vdd vdd pch l=60e-9 w=520e-9 m=1 nf=1 
m6 zn a2 vdd vdd pch l=60e-9 w=520e-9 m=1 nf=1 
m7 zn a1 vdd vdd pch l=60e-9 w=520e-9 m=1 nf=1 
m8 zn a1 vdd vdd pch l=60e-9 w=520e-9 m=1 nf=1 
m9 net69 a2 net72 vss nch l=60e-9 w=390e-9 m=1 nf=1 
m10 net56 a3 vss vss nch l=60e-9 w=390e-9 m=1 nf=1 
m11 zn a1 net69 vss nch l=60e-9 w=390e-9 m=1 nf=1 
m12 zn a1 net53 vss nch l=60e-9 w=390e-9 m=1 nf=1 
m13 net53 a2 net56 vss nch l=60e-9 w=390e-9 m=1 nf=1 
m14 net72 a3 vss vss nch l=60e-9 w=390e-9 m=1 nf=1 
m15 net44 a3 vss vss nch l=60e-9 w=390e-9 m=1 nf=1 
m16 net40 a2 net44 vss nch l=60e-9 w=390e-9 m=1 nf=1 
m17 zn a1 net40 vss nch l=60e-9 w=390e-9 m=1 nf=1 
.ends ND3D3
** End of subcircuit definition.

** Library name: tcbn65lp
** Cell name: AN3D1
** View name: schematic
.subckt AN3D1 a1 a2 a3 z vdd vss
m0 net13 a3 vss vss nch l=60e-9 w=195e-9 m=1 nf=1 
m1 z net11 vss vss nch l=60e-9 w=390e-9 m=1 nf=1 
m2 net5 a2 net13 vss nch l=60e-9 w=195e-9 m=1 nf=1 
m3 net11 a1 net5 vss nch l=60e-9 w=195e-9 m=1 nf=1 
m4 z net11 vdd vdd pch l=60e-9 w=520e-9 m=1 nf=1 
m5 net11 a3 vdd vdd pch l=60e-9 w=260e-9 m=1 nf=1 
m6 net11 a1 vdd vdd pch l=60e-9 w=260e-9 m=1 nf=1 
m7 net11 a2 vdd vdd pch l=60e-9 w=260e-9 m=1 nf=1 
.ends AN3D1
** End of subcircuit definition.

** Library name: modelx
** Cell name: MDLL_CKGEN_V1
** View name: schematic
.subckt MDLL_CKGEN_V1 en_dll free_run md_sar md_trk ref_clk sar_en sclk0 sel_rst trk_en vdd vss
xi9 net31 net17 vdd vss INVD0
xi40 net042 en_dll md_sar sar_en vdd vss AN3D2
xi45 sclk net010 net25 net048 vdd vss AN3D2
xi25 net010 free_run vdd vss INVD1
xi5 net37 net25 vdd vss INVD1
xi0 md_sar md_trk net36 vdd vss NR2D0
xi43 en_dll sclk0 net032 net045 vdd vss DFND1
xi44 net048 sel_rst vdd vss INVD8
xi15 net32 vdd vss TIEL
xi22 net30 sclk net14 net27 vdd vss DFSNQD1
xi21 net29 sclk net14 net30 vdd vss DFSNQD1
xi20 net27 sclk net14 net021 vdd vss DFSNQD1
xi19 net34 sclk net14 net33 vdd vss DFSNQD1
xi18 net33 sclk net14 net29 vdd vss DFSNQD1
xi17 net35 sclk net14 net34 vdd vss DFSNQD1
xi16 net32 sclk net14 net35 vdd vss DFSNQD1
xi24 net36 en_dll net010 vdd vss ND2D0
xi8 en_dll net31 vdd vss DEL015
xi4 sclk net37 vdd vss DEL015
xi27 net021 sclk net14 net042 net026 vdd vss DFSND1
xi28 net026 en_dll trk_rst vdd vss AN2D0
xi30 net039 net020 trk_rst net027 net039 vdd vss DFCND1
xi29 net015 sclk trk_rst net020 net015 vdd vss DFCND1
xi36 net032 sclk0 sclk vdd vss AN2D2
xi35 sclk ref_clk vdd vss CKBD4
xi38 en_dll net17 md_sar net14 vdd vss ND3D3
xi42 net027 net015 md_trk trk_en vdd vss AN3D1
.ends MDLL_CKGEN_V1
** End of subcircuit definition.

** Library name: tcbn65lp
** Cell name: MUX2D1
** View name: schematic
.subckt MUX2D1 i0 i1 s z vdd vss
m0 net5 i1 vdd vdd pch l=60e-9 w=520e-9 m=1 nf=1 
m1 net37 i0 vdd vdd pch l=60e-9 w=310e-9 m=1 nf=1 
m2 z net27 vdd vdd pch l=60e-9 w=520e-9 m=1 nf=1 
m3 net9 s vdd vdd pch l=60e-9 w=260e-9 m=1 nf=1 
m4 net5 net9 net27 vdd pch l=60e-9 w=340e-9 m=1 nf=1 
m5 net37 s net27 vdd pch l=60e-9 w=410e-9 m=1 nf=1 
m6 net37 net9 net27 vss nch l=60e-9 w=260e-9 m=1 nf=1 
m7 net9 s vss vss nch l=60e-9 w=195e-9 m=1 nf=1 
m8 net37 i0 vss vss nch l=60e-9 w=230e-9 m=1 nf=1 
m9 net5 s net27 vss nch l=60e-9 w=240e-9 m=1 nf=1 
m10 net5 i1 vss vss nch l=60e-9 w=390e-9 m=1 nf=1 
m11 z net27 vss vss nch l=60e-9 w=390e-9 m=1 nf=1 
.ends MUX2D1
** End of subcircuit definition.

** Library name: tcbn65lp
** Cell name: DEL0
** View name: schematic
.subckt DEL0 i z vdd vss
m0 net11 net25 vss vss nch l=600e-9 w=390e-9 m=1 nf=1 
m1 z net11 vss vss nch l=60e-9 w=390e-9 m=1 nf=1 
m2 net5 i vss vss nch l=60e-9 w=390e-9 m=1 nf=1 
m3 net25 net5 vss vss nch l=600e-9 w=390e-9 m=1 nf=1 
m4 z net11 vdd vdd pch l=60e-9 w=520e-9 m=1 nf=1 
m5 net25 net5 vdd vdd pch l=600e-9 w=520e-9 m=1 nf=1 
m6 net5 i vdd vdd pch l=60e-9 w=520e-9 m=1 nf=1 
m7 net11 net25 vdd vdd pch l=600e-9 w=520e-9 m=1 nf=1 
.ends DEL0
** End of subcircuit definition.

** Library name: tcbn65lp
** Cell name: MUX2D0
** View name: schematic
.subckt MUX2D0 i0 i1 s z vdd vss
m0 z net5 vdd vdd pch l=60e-9 w=260e-9 m=1 nf=1 
m1 net17 s vdd vdd pch l=60e-9 w=250e-9 m=1 nf=1 
mi111 net13 i0 vdd vdd pch l=60e-9 w=260e-9 m=1 nf=1 
mi24 net9 i1 vdd vdd pch l=60e-9 w=260e-9 m=1 nf=1 
mi5 net5 s net13 vdd pch l=60e-9 w=260e-9 m=1 nf=1 
mi25 net5 net17 net9 vdd pch l=60e-9 w=260e-9 m=1 nf=1 
m2 net17 s vss vss nch l=60e-9 w=195e-9 m=1 nf=1 
mi20 net36 i1 vss vss nch l=60e-9 w=195e-9 m=1 nf=1 
mi12 net5 net17 net25 vss nch l=60e-9 w=195e-9 m=1 nf=1 
mi21 net5 s net36 vss nch l=60e-9 w=195e-9 m=1 nf=1 
m3 z net5 vss vss nch l=60e-9 w=195e-9 m=1 nf=1 
mi19 net25 i0 vss vss nch l=60e-9 w=195e-9 m=1 nf=1 
.ends MUX2D0
** End of subcircuit definition.

** Library name: tcbn65lp
** Cell name: DEL005
** View name: schematic
.subckt DEL005 i z vdd vss
m0 z net11 vdd vdd pch l=60e-9 w=520e-9 m=1 nf=1 
mi3 net5 i vdd vdd pch l=60e-9 w=520e-9 m=1 nf=1 
mi10 net11 i net5 vdd pch l=60e-9 w=520e-9 m=1 nf=1 
mi13 net5 i vss vss nch l=60e-9 w=390e-9 m=1 nf=1 
m1 z net11 vss vss nch l=60e-9 w=390e-9 m=1 nf=1 
mi12 net11 i net5 vss nch l=60e-9 w=390e-9 m=1 nf=1 
.ends DEL005
** End of subcircuit definition.

** Library name: modelx
** Cell name: DEL_3x1_BIN
** View name: schematic
.subckt DEL_3x1_BIN del_in del_out lsb<3> lsb<2> lsb<1> vdd vss
xi9 net020 net027 net033 del_out vdd vss MUX2D1
xi1 net010 net032 vdd vss DEL0
xi19 lsb<3> net013 vdd vss DEL0
xi20 lsb<2> net035 vdd vss DEL015
xi5 net030 net029 vdd vss DEL015
xi21 lsb<1> net033 vdd vss DEL015
xi3 del_in net032 net013 net019 vdd vss MUX2D0
xi6 net019 net029 net035 net020 vdd vss MUX2D0
xi8 net028 net027 vdd vss DEL005
xi14 del_in net05 vdd vss INVD0
xi16 net019 net018 vdd vss INVD0
xi17 net020 net023 vdd vss INVD0
xi15 net018 lsb<2> net030 vdd vss ND2D0
xi13 net05 lsb<3> net010 vdd vss ND2D0
xi18 net023 lsb<1> net028 vdd vss ND2D0
.ends DEL_3x1_BIN
** End of subcircuit definition.

** Library name: tcbn65lp
** Cell name: OR2D0
** View name: schematic
.subckt OR2D0 a1 a2 z vdd vss
m0 z net5 vss vss nch l=60e-9 w=195e-9 m=1 nf=1 
m1 net5 a1 vss vss nch l=60e-9 w=195e-9 m=1 nf=1 
m2 net5 a2 vss vss nch l=60e-9 w=195e-9 m=1 nf=1 
m3 z net5 vdd vdd pch l=60e-9 w=260e-9 m=1 nf=1 
m4 net17 a2 vdd vdd pch l=60e-9 w=260e-9 m=1 nf=1 
m5 net5 a1 net17 vdd pch l=60e-9 w=260e-9 m=1 nf=1 
.ends OR2D0
** End of subcircuit definition.

** Library name: tcbn65lp
** Cell name: DEL1
** View name: schematic
.subckt DEL1 i z vdd vss
m0 net11 net25 vss vss nch l=980e-9 w=390e-9 m=1 nf=1 
m1 z net11 vss vss nch l=60e-9 w=300e-9 m=1 nf=1 
m2 net5 i vss vss nch l=60e-9 w=390e-9 m=1 nf=1 
m3 net25 net5 vss vss nch l=980e-9 w=390e-9 m=1 nf=1 
m4 z net11 vdd vdd pch l=60e-9 w=520e-9 m=1 nf=1 
m5 net25 net5 vdd vdd pch l=980e-9 w=520e-9 m=1 nf=1 
m6 net5 i vdd vdd pch l=60e-9 w=520e-9 m=1 nf=1 
m7 net11 net25 vdd vdd pch l=980e-9 w=520e-9 m=1 nf=1 
.ends DEL1
** End of subcircuit definition.

** Library name: tcbn65lp
** Cell name: MUX4D0
** View name: schematic
.subckt MUX4D0 i0 i1 i2 i3 s0 s1 z vdd vss
m0 z net20 vdd vdd pch l=60e-9 w=260e-9 m=1 nf=1 
m1 net97 s1 net20 vdd pch l=60e-9 w=260e-9 m=1 nf=1 
m2 net37 i3 vdd vdd pch l=60e-9 w=260e-9 m=1 nf=1 
m3 net37 net61 net104 vdd pch l=60e-9 w=260e-9 m=1 nf=1 
m4 net33 s1 vdd vdd pch l=60e-9 w=260e-9 m=1 nf=1 
m5 net61 s0 vdd vdd pch l=60e-9 w=260e-9 m=1 nf=1 
m6 net81 i2 vdd vdd pch l=60e-9 w=260e-9 m=1 nf=1 
m7 net5 i1 vdd vdd pch l=60e-9 w=260e-9 m=1 nf=1 
m8 net104 net33 net20 vdd pch l=60e-9 w=260e-9 m=1 nf=1 
m9 net81 s0 net104 vdd pch l=60e-9 w=260e-9 m=1 nf=1 
m10 net9 s0 net97 vdd pch l=60e-9 w=260e-9 m=1 nf=1 
m11 net5 net61 net97 vdd pch l=60e-9 w=260e-9 m=1 nf=1 
m12 net9 i0 vdd vdd pch l=60e-9 w=260e-9 m=1 nf=1 
m13 net37 s0 net104 vss nch l=60e-9 w=195e-9 m=1 nf=1 
m14 net97 net33 net20 vss nch l=60e-9 w=195e-9 m=1 nf=1 
m15 net5 i1 vss vss nch l=60e-9 w=195e-9 m=1 nf=1 
m16 net37 i3 vss vss nch l=60e-9 w=195e-9 m=1 nf=1 
m17 net5 s0 net97 vss nch l=60e-9 w=195e-9 m=1 nf=1 
m18 net81 net61 net104 vss nch l=60e-9 w=180e-9 m=1 nf=1 
m19 net104 s1 net20 vss nch l=60e-9 w=195e-9 m=1 nf=1 
m20 net9 net61 net97 vss nch l=60e-9 w=170e-9 m=1 nf=1 
m21 net81 i2 vss vss nch l=60e-9 w=180e-9 m=1 nf=1 
m22 z net20 vss vss nch l=60e-9 w=195e-9 m=1 nf=1 
m23 net61 s0 vss vss nch l=60e-9 w=180e-9 m=1 nf=1 
m24 net9 i0 vss vss nch l=60e-9 w=170e-9 m=1 nf=1 
m25 net33 s1 vss vss nch l=60e-9 w=150e-9 m=1 nf=1 
.ends MUX4D0
** End of subcircuit definition.

** Library name: tcbn65lp
** Cell name: BUFFD0
** View name: schematic
.subckt BUFFD0 i z vdd vss
m0 net5 i vss vss nch l=60e-9 w=195e-9 m=1 nf=1 
m1 z net5 vss vss nch l=60e-9 w=195e-9 m=1 nf=1 
m2 net5 i vdd vdd pch l=60e-9 w=260e-9 m=1 nf=1 
m3 z net5 vdd vdd pch l=60e-9 w=260e-9 m=1 nf=1 
.ends BUFFD0
** End of subcircuit definition.

** Library name: modelx
** Cell name: DEL_3x1
** View name: schematic
.subckt DEL_3x1 del_in del_out en sel0 sel1 vdd vss
xi18 sel1 sel0 s2t<3> vdd vss AN2D0
xi8 net12 s2t<3> net18 vdd vss AN2D0
xi6 net11 s2t<2> net19 vdd vss AN2D0
xi4 net21 s2t<1> net20 vdd vss AN2D0
xi2 del_in s2t<0> net21 vdd vss AN2D0
xi9 net18 net17 vdd vss DEL1
xi7 net19 net12 vdd vss DEL1
xi5 net20 net11 vdd vss DEL1
xi11 net21 net11 net12 net17 sel0 sel1 del_out vdd vss MUX4D0
xi17 sel1 s2t<2> vdd vss BUFFD0
xi16 en s2t<0> vdd vss BUFFD0
xi14 sel1 sel0 s2t<1> vdd vss OR2D0
.ends DEL_3x1
** End of subcircuit definition.

** Library name: modelx
** Cell name: DEL_4x1
** View name: schematic
.subckt DEL_4x1 del_in del_out en sel0 sel1 vdd vss
xi18 sel1 sel0 s2t<3> vdd vss AN2D0
xi8 net12 s2t<3> net18 vdd vss AN2D0
xi6 net11 s2t<2> net19 vdd vss AN2D0
xi4 net10 s2t<1> net20 vdd vss AN2D0
xi2 del_in s2t<0> net21 vdd vss AN2D0
xi9 net18 net17 vdd vss DEL1
xi7 net19 net12 vdd vss DEL1
xi5 net20 net11 vdd vss DEL1
xi3 net21 net10 vdd vss DEL1
xi11 net10 net11 net12 net17 sel0 sel1 del_out vdd vss MUX4D0
xi17 sel1 s2t<2> vdd vss BUFFD0
xi16 en s2t<0> vdd vss BUFFD0
xi14 sel1 sel0 s2t<1> vdd vss OR2D0
.ends DEL_4x1
** End of subcircuit definition.

** Library name: tcbn65lp
** Cell name: CKBD2
** View name: schematic
.subckt CKBD2 i z vdd vss
mu23_1 z net5 vss vss nch l=60e-9 w=310e-9 m=1 nf=1 
m_u15 net5 i vss vss nch l=60e-9 w=310e-9 m=1 nf=1 
mu23_0 z net5 vss vss nch l=60e-9 w=310e-9 m=1 nf=1 
m_u3 net5 i vdd vdd pch l=60e-9 w=520e-9 m=1 nf=1 
mu21_0 z net5 vdd vdd pch l=60e-9 w=520e-9 m=1 nf=1 
mu21_1 z net5 vdd vdd pch l=60e-9 w=520e-9 m=1 nf=1 
.ends CKBD2
** End of subcircuit definition.

** Library name: tcbn65lp
** Cell name: MUX4ND0
** View name: schematic
.subckt MUX4ND0 i0 i1 i2 i3 s0 s1 zn vdd vss
m0 net17 i2 vss vss nch l=60e-9 w=190e-9 m=1 nf=1 
m1 net20 s1 zn vss nch l=60e-9 w=195e-9 m=1 nf=1 
m2 net61 i0 vss vss nch l=60e-9 w=200e-9 m=1 nf=1 
m3 net33 net83 zn vss nch l=60e-9 w=195e-9 m=1 nf=1 
m4 net61 net67 net33 vss nch l=60e-9 w=190e-9 m=1 nf=1 
m5 net67 s0 vss vss nch l=60e-9 w=180e-9 m=1 nf=1 
m6 net5 s0 net33 vss nch l=60e-9 w=195e-9 m=1 nf=1 
m7 net17 net67 net20 vss nch l=60e-9 w=190e-9 m=1 nf=1 
m8 net9 s0 net20 vss nch l=60e-9 w=195e-9 m=1 nf=1 
m9 net9 i3 vss vss nch l=60e-9 w=390e-9 m=1 nf=1 
m10 net5 i1 vss vss nch l=60e-9 w=390e-9 m=1 nf=1 
m11 net83 s1 vss vss nch l=60e-9 w=195e-9 m=1 nf=1 
m12 net61 i0 vdd vdd pch l=60e-9 w=340e-9 m=1 nf=1 
m13 net83 s1 vdd vdd pch l=60e-9 w=260e-9 m=1 nf=1 
m14 net67 s0 vdd vdd pch l=60e-9 w=260e-9 m=1 nf=1 
m15 net20 net83 zn vdd pch l=60e-9 w=260e-9 m=1 nf=1 
m16 net9 i3 vdd vdd pch l=60e-9 w=520e-9 m=1 nf=1 
m17 net5 i1 vdd vdd pch l=60e-9 w=520e-9 m=1 nf=1 
m18 net17 i2 vdd vdd pch l=60e-9 w=340e-9 m=1 nf=1 
m19 net5 net67 net33 vdd pch l=60e-9 w=260e-9 m=1 nf=1 
m20 net61 s0 net33 vdd pch l=60e-9 w=260e-9 m=1 nf=1 
m21 net9 net67 net20 vdd pch l=60e-9 w=260e-9 m=1 nf=1 
m22 net17 s0 net20 vdd pch l=60e-9 w=260e-9 m=1 nf=1 
m23 net33 s1 zn vdd pch l=60e-9 w=260e-9 m=1 nf=1 
.ends MUX4ND0
** End of subcircuit definition.

** Library name: modelx
** Cell name: DEL_7b
** View name: schematic
.subckt DEL_7b ckout en lsb<3> lsb<2> lsb<1> ref_clk sel0 sel1 sel2 sel3 sel_dl vdd vss
xi29 net87 net82 lsb<3> lsb<2> lsb<1> vdd vss DEL_3x1_BIN
xi14 sel3 sel2 s2t<1> vdd vss OR2D0
xi23 sel1 s2t<1> net90 vdd vss OR2D0
xi27 sel1 s2t<3> net88 vdd vss OR2D0
xi25 sel1 s2t<2> net89 vdd vss OR2D0
xi24 sel0 s2t<1> net83 vdd vss OR2D0
xi28 sel0 s2t<3> net85 vdd vss OR2D0
xi26 sel0 s2t<2> net84 vdd vss OR2D0
xi0 ref_clk net82 sel_dl net91 vdd vss MUX2D0
xi19 net91 net76 s2t<0> net83 net90 vdd vss DEL_3x1
xi22 net80 net86 s2t<3> sel0 sel1 vdd vss DEL_4x1
xi21 net78 net80 s2t<2> net85 net88 vdd vss DEL_4x1
xi20 net76 net78 s2t<1> net84 net89 vdd vss DEL_4x1
xi18 sel3 sel2 s2t<3> vdd vss AN2D0
xi16 en s2t<0> vdd vss BUFFD0
xi17 sel3 s2t<2> vdd vss BUFFD0
xi2 net82 ckout vdd vss CKBD2
xi3 net76 net78 net80 net86 sel2 sel3 net87 vdd vss MUX4ND0
.ends DEL_7b
** End of subcircuit definition.

** Library name: tcbn65lp
** Cell name: CKND0
** View name: schematic
.subckt CKND0 i zn vdd vss
m_u2 zn i vss vss nch l=60e-9 w=150e-9 m=1 nf=1 
m_u1 zn i vdd vdd pch l=60e-9 w=260e-9 m=1 nf=1 
.ends CKND0
** End of subcircuit definition.

** Library name: tcbn65lp
** Cell name: AO22D0
** View name: schematic
.subckt AO22D0 a1 a2 b1 b2 z vdd vss
mi23 net17 a2 vss vss nch l=60e-9 w=195e-9 m=1 nf=1 
m0 z net5 vss vss nch l=60e-9 w=195e-9 m=1 nf=1 
mi16 net5 b1 net1 vss nch l=60e-9 w=195e-9 m=1 nf=1 
mi24 net5 a1 net17 vss nch l=60e-9 w=195e-9 m=1 nf=1 
mi22 net1 b2 vss vss nch l=60e-9 w=195e-9 m=1 nf=1 
mi20 net5 a1 net33 vdd pch l=60e-9 w=260e-9 m=1 nf=1 
m_u2 net33 b2 vdd vdd pch l=60e-9 w=260e-9 m=1 nf=1 
mi19 net5 a2 net33 vdd pch l=60e-9 w=260e-9 m=1 nf=1 
m1 z net5 vdd vdd pch l=60e-9 w=260e-9 m=1 nf=1 
mi21 net33 b1 vdd vdd pch l=60e-9 w=260e-9 m=1 nf=1 
.ends AO22D0
** End of subcircuit definition.

** Library name: tcbn65lp
** Cell name: MOAI22D1
** View name: schematic
.subckt MOAI22D1 a1 a2 b1 b2 zn vdd vss
mu1 net37 b1 net20 vss nch l=60e-9 w=390e-9 m=1 nf=1 
mi6 net9 net37 vss vss nch l=60e-9 w=390e-9 m=1 nf=1 
mu9 net9 a1 zn vss nch l=60e-9 w=390e-9 m=1 nf=1 
mi5 net20 b2 vss vss nch l=60e-9 w=390e-9 m=1 nf=1 
mu10 net9 a2 zn vss nch l=60e-9 w=390e-9 m=1 nf=1 
mi1 net37 b1 vdd vdd pch l=60e-9 w=520e-9 m=1 nf=1 
mi3 net33 a2 vdd vdd pch l=60e-9 w=520e-9 m=1 nf=1 
mi4 zn a1 net33 vdd pch l=60e-9 w=520e-9 m=1 nf=1 
mi2 zn net37 vdd vdd pch l=60e-9 w=520e-9 m=1 nf=1 
mu3 net37 b2 vdd vdd pch l=60e-9 w=520e-9 m=1 nf=1 
.ends MOAI22D1
** End of subcircuit definition.

** Library name: tcbn65lp
** Cell name: CKAN2D0
** View name: schematic
.subckt CKAN2D0 a1 a2 z vdd vss
m0 net5 a2 vdd vdd pch l=60e-9 w=195e-9 m=1 nf=1 
m1 net5 a1 vdd vdd pch l=60e-9 w=195e-9 m=1 nf=1 
m2 z net5 vdd vdd pch l=60e-9 w=260e-9 m=1 nf=1 
m3 net21 a2 vss vss nch l=60e-9 w=150e-9 m=1 nf=1 
m4 z net5 vss vss nch l=60e-9 w=150e-9 m=1 nf=1 
m5 net5 a1 net21 vss nch l=60e-9 w=150e-9 m=1 nf=1 
.ends CKAN2D0
** End of subcircuit definition.

** Library name: tcbn65lp
** Cell name: AN2XD1
** View name: schematic
.subckt AN2XD1 a1 a2 z vdd vss
m0 net9 a2 vss vss nch l=60e-9 w=390e-9 m=1 nf=1 
m1 net5 a1 net9 vss nch l=60e-9 w=390e-9 m=1 nf=1 
m2 z net5 vss vss nch l=60e-9 w=390e-9 m=1 nf=1 
m3 z net5 vdd vdd pch l=60e-9 w=520e-9 m=1 nf=1 
m4 net5 a2 vdd vdd pch l=60e-9 w=520e-9 m=1 nf=1 
m5 net5 a1 vdd vdd pch l=60e-9 w=520e-9 m=1 nf=1 
.ends AN2XD1
** End of subcircuit definition.

** Library name: tcbn65lp
** Cell name: AN3D0
** View name: schematic
.subckt AN3D0 a1 a2 a3 z vdd vss
m0 net13 a3 vss vss nch l=60e-9 w=195e-9 m=1 nf=1 
m1 z net11 vss vss nch l=60e-9 w=195e-9 m=1 nf=1 
m2 net5 a2 net13 vss nch l=60e-9 w=195e-9 m=1 nf=1 
m3 net11 a1 net5 vss nch l=60e-9 w=195e-9 m=1 nf=1 
m4 z net11 vdd vdd pch l=60e-9 w=260e-9 m=1 nf=1 
m5 net11 a3 vdd vdd pch l=60e-9 w=260e-9 m=1 nf=1 
m6 net11 a1 vdd vdd pch l=60e-9 w=260e-9 m=1 nf=1 
m7 net11 a2 vdd vdd pch l=60e-9 w=260e-9 m=1 nf=1 
.ends AN3D0
** End of subcircuit definition.

** Library name: tcbn65lp
** Cell name: AN3XD1
** View name: schematic
.subckt AN3XD1 a1 a2 a3 z vdd vss
m0 net13 a3 vss vss nch l=60e-9 w=390e-9 m=1 nf=1 
m1 z net11 vss vss nch l=60e-9 w=390e-9 m=1 nf=1 
m2 net5 a2 net13 vss nch l=60e-9 w=390e-9 m=1 nf=1 
m3 net11 a1 net5 vss nch l=60e-9 w=390e-9 m=1 nf=1 
m4 z net11 vdd vdd pch l=60e-9 w=520e-9 m=1 nf=1 
m5 net11 a3 vdd vdd pch l=60e-9 w=520e-9 m=1 nf=1 
m6 net11 a1 vdd vdd pch l=60e-9 w=520e-9 m=1 nf=1 
m7 net11 a2 vdd vdd pch l=60e-9 w=520e-9 m=1 nf=1 
.ends AN3XD1
** End of subcircuit definition.

** Library name: tcbn65lp
** Cell name: ND2D1
** View name: schematic
.subckt ND2D1 a1 a2 zn vdd vss
m0 zn a1 net1 vss nch l=60e-9 w=390e-9 m=1 nf=1 
m1 net1 a2 vss vss nch l=60e-9 w=390e-9 m=1 nf=1 
m2 zn a1 vdd vdd pch l=60e-9 w=520e-9 m=1 nf=1 